<additional>
   <laneAreaDetector id="eastLAD1" lanes="281221761#1_0" file="./laneAreaDetectorOut.xml" tl="30896504"/>
   <laneAreaDetector id="eastLAD2" lanes="281221761#1_1" file="./laneAreaDetectorOut.xml" tl="30896504"/>
   <laneAreaDetector id="eastLAD3" lanes="281221761#1_2" file="./laneAreaDetectorOut.xml" tl="30896504"/>
   <laneAreaDetector id="northLAD1" lanes="480155244#5_0" file="./laneAreaDetectorOut.xml" tl="30896504"/>
   <laneAreaDetector id="northLAD2" lanes="480155244#5_1" file="./laneAreaDetectorOut.xml" tl="30896504"/>
   <laneAreaDetector id="northLAD3" lanes="480155244#5_2" file="./laneAreaDetectorOut.xml" tl="30896504"/>
   <laneAreaDetector id="westLAD1" lanes="480041825#9_0" file="./laneAreaDetectorOut.xml" tl="30896504"/>
   <laneAreaDetector id="westLAD2" lanes="480041825#9_1" file="./laneAreaDetectorOut.xml" tl="30896504"/>
   <laneAreaDetector id="westLAD3" lanes="480041825#9_2" file="./laneAreaDetectorOut.xml" tl="30896504"/>
   <laneAreaDetector id="southLAD1" lanes="64661021#4_0" file="./laneAreaDetectorOut.xml" tl="30896504"/>
   <laneAreaDetector id="southLAD2" lanes="64661021#4_1" file="./laneAreaDetectorOut.xml" tl="30896504"/>
   <laneAreaDetector id="southLAD3" lanes="64661021#4_2" file="./laneAreaDetectorOut.xml" tl="30896504"/>
</additional>

<!--
# junction 30896504
# east road 1: 281221761#1_0
# east road 2: 281221761#0_0
# north road 1: 480155244#5_0
# north road 2: 480155244#4_0
# west road 1: 480041825#9_0
# south road 1: 64661021#4_0
-->
