<?xml version="1.0" encoding="UTF-8"?>

<!-- generated on 2024-03-18 21:25:24 by Eclipse SUMO sumo Version v1_19_0+1350-d07d72dc31b
-->

<configuration xmlns:xsi="http://www.w3.org/2001/XMLSchema-instance" xsi:noNamespaceSchemaLocation="http://sumo.dlr.de/xsd/sumoConfiguration.xsd">

    <input>
        <net-file value="net.net.xml"/>
        <route-files value="main.rou.xml"/>
        <additional-files value="main.add.xml"/>
    </input>

</configuration>
