<?xml version="1.0" encoding="UTF-8"?>

<!-- generated on 2024-03-15 20:31:26 by Eclipse SUMO netedit Version v1_19_0+1201-15e6959dda4
-->

<routes xmlns:xsi="http://www.w3.org/2001/XMLSchema-instance" xsi:noNamespaceSchemaLocation="http://sumo.dlr.de/xsd/routes_file.xsd">
    <!-- VTypes -->
    <vType id="DEFAULT_VEHTYPE"/>
    <vTypeDistribution id="td_0" vTypes="DEFAULT_CONTAINERTYPE DEFAULT_VEHTYPE" probabilities="0.10 0.90"/>
    <!-- Routes -->
    <route id="r_0" edges="480039692#10 480041825#0 480041825#1 480041825#2 480041825#3 480041825#4 480041825#5 480041825#6 480041825#7 480041825#9 281221762#0 281221762#1"/>
    <route id="r_1" edges="480039692#10 480041825#0 480041825#1 480041825#2 480041825#3 480041825#4 480041825#5 480041825#6 480041825#7 480041825#9 4811637#0 4811637#1 4811637#2"/>
    <route id="r_10" edges="64661021#1 64661021#2 64661021#3 64661021#4 281226915#1 281226915#2 281226915#3" color="blue"/>
    <route id="r_11" edges="480155244#0 480155244#1 480155244#2 480155244#3 480155244#4 480155244#5 281226915#1 281226915#2 281226915#3" color="magenta"/>
    <route id="r_12" edges="480155244#0 480155244#1 480155244#2 480155244#3 480155244#4 617083443 281221763#1 281221763#2 281221763#3 281221763#4 281221763#5 1127460588#0 1127460588#1 1127460588#2" color="magenta"/>
    <route id="r_13" edges="480155244#0 480155244#1 480155244#2 480155244#3 480155244#4 480155244#5 281221762#0 281221762#1" color="magenta"/>
    <route id="r_14" edges="480155244#0 480155244#1 480155244#2 480155244#3 480155244#4 480155244#5 4811637#0 4811637#1 4811637#2" color="magenta"/>
    <route id="r_15" edges="64661021#1 64661021#2 64661021#3 64661021#4 281221763#0 281221763#1 281221763#2 281221763#3 281221763#4 281221763#5 1127460588#0 1127460588#1 1127460588#2" color="blue"/>
    <route id="r_2" edges="480039692#10 480041825#0 480041825#1 480041825#2 480041825#3 480041825#4 480041825#5 480041825#6 480041825#7 4811642 281226915#2 281226915#3"/>
    <route id="r_3" edges="484449878#5 484449878#6 281221761#1 281226915#1 281226915#2 281226915#3" color="red"/>
    <route id="r_4" edges="480039692#10 480041825#0 480041825#1 480041825#2 480041825#3 480041825#4 480041825#5 480041825#6 480041825#7 480041825#9 281221763#0 281221763#1 281221763#2 281221763#3 281221763#4 281221763#5 1127460588#0 1127460588#1 1127460588#2"/>
    <route id="r_5" edges="484449878#5 484449878#6 617083445 281221762#1" color="red"/>
    <route id="r_6" edges="484449878#5 484449878#6 281221761#1 4811637#0 4811637#1 4811637#2" color="red"/>
    <route id="r_7" edges="484449878#5 484449878#6 281221761#1 281221763#0 281221763#1 281221763#2 281221763#3 281221763#4 281221763#5 1127460588#0 1127460588#1 1127460588#2" color="red"/>
    <route id="r_8" edges="64661021#1 64661021#2 64661021#3 64661021#4 281221762#0 281221762#1" color="blue"/>
    <route id="r_9" edges="64661021#1 64661021#2 64661021#3 4811639 4811637#1 4811637#2" color="blue"/>
    <!-- Vehicles, persons and containers (sorted by depart) -->
    <flow id="f_0" begin="0.00" route="r_12" end="3600.00" vehsPerHour="600"/>
    <flow id="f_1" begin="0.00" route="r_13" end="3600.00" vehsPerHour="600"/>
    <flow id="f_10" begin="0.00" route="r_15" end="3600.00" vehsPerHour="600"/>
    <flow id="f_11" begin="0.00" route="r_9" end="3600.00" vehsPerHour="600"/>
    <flow id="f_12" begin="0.00" route="r_6" end="3600.00" vehsPerHour="600"/>
    <flow id="f_13" begin="0.00" route="r_3" end="3600.00" vehsPerHour="600"/>
    <flow id="f_14" begin="0.00" route="r_7" end="3600.00" vehsPerHour="1800"/>
    <flow id="f_15" begin="0.00" route="r_5" end="3600.00" vehsPerHour="600"/>
    <flow id="f_2" begin="0.00" route="r_14" end="3600.00" vehsPerHour="600"/>
    <flow id="f_3" begin="0.00" route="r_11" end="3600.00" vehsPerHour="1800"/>
    <flow id="f_4" begin="0.00" route="r_1" end="3600.00" vehsPerHour="1800"/>
    <flow id="f_5" begin="0.00" route="r_4" end="3600.00" vehsPerHour="600"/>
    <flow id="f_6" begin="0.00" route="r_0" end="3600.00" vehsPerHour="600"/>
    <flow id="f_7" begin="0.00" route="r_2" end="3600.00" vehsPerHour="600"/>
    <flow id="f_8" begin="0.00" route="r_10" end="3600.00" vehsPerHour="600"/>
    <flow id="f_9" begin="0.00" route="r_8" end="3600.00" vehsPerHour="1800"/>
</routes>
