<?xml version="1.0" encoding="UTF-8"?>

<!-- generated on 2024-02-11 12:34:09 by Eclipse SUMO GUI Version 1.19.0
-->

<configuration xmlns:xsi="http://www.w3.org/2001/XMLSchema-instance" xsi:noNamespaceSchemaLocation="http://sumo.dlr.de/xsd/sumoConfiguration.xsd">

    <input>
        <net-file value="net.net.xml"/>
        <route-files value="routes.rou.xml"/>
        <additional-files value="polygons.xml,inductionLoop.add.xml,laneAreaDetector.add.xml"/>
    </input>

</configuration>
