<?xml version="1.0" encoding="UTF-8"?>

<!-- generated on 2024-03-24 21:30:08 by Eclipse SUMO sumo Version v1_19_0+1497-a4c58d93ab1
-->

<configuration xmlns:xsi="http://www.w3.org/2001/XMLSchema-instance" xsi:noNamespaceSchemaLocation="http://sumo.dlr.de/xsd/sumoConfiguration.xsd">

    <input>
        <net-file value="net.net.xml"/>
        <route-files value="main.rou.xml"/>
    </input>

</configuration>
