<?xml version="1.0" encoding="UTF-8"?>

<!-- generated on 2024-03-19 14:28:18 by Eclipse SUMO sumo Version v1_19_0+1359-64c4a1408b8
-->

<configuration xmlns:xsi="http://www.w3.org/2001/XMLSchema-instance" xsi:noNamespaceSchemaLocation="http://sumo.dlr.de/xsd/sumoConfiguration.xsd">

    <input>
        <net-file value="net.net.xml"/>
        <route-files value="main.rou.xml"/>
        <additional-files value="main.add.xml"/>
    </input>

</configuration>
