<?xml version="1.0" encoding="UTF-8"?>

<!-- generated on 2024-03-24 21:25:46 by Eclipse SUMO netedit Version v1_19_0+1497-a4c58d93ab1
-->

<routes xmlns:xsi="http://www.w3.org/2001/XMLSchema-instance" xsi:noNamespaceSchemaLocation="http://sumo.dlr.de/xsd/routes_file.xsd">
    <!-- VTypes -->
    <vType id="DEFAULT_VEHTYPE" emissionClass="HBEFA3/PC_G_EU4" width="1.80" height="1.50" carFollowModel="EIDM"/>
    <!-- Routes -->
    <route id="e_to_e" edges="484449878#6 281221761#1 4811637#0 4811637#1" color="green"/>
    <route id="e_to_n" edges="484449878#6 617083445 281221762#1" color="green"/>
    <route id="e_to_s" edges="484449878#6 281221761#1 281226915#1 281226915#2" color="green"/>
    <route id="e_to_w" edges="484449878#6 281221761#1 281221763#0 281221763#1" color="green"/>
    <route id="n_to_e" edges="480155244#4 480155244#5 4811637#0 4811637#1" color="cyan"/>
    <route id="n_to_n" edges="480155244#4 480155244#5 281221762#0 281221762#1" color="cyan"/>
    <route id="n_to_s" edges="480155244#4 480155244#5 281226915#1 281226915#2" color="cyan"/>
    <route id="n_to_w" edges="480155244#4 617083443 281221763#1" color="cyan"/>
    <route id="s_to_e" edges="64661021#3 4811639 4811637#1" color="blue"/>
    <route id="s_to_n" edges="64661021#3 64661021#4 281221762#0 281221762#1" color="blue"/>
    <route id="s_to_s" edges="64661021#3 64661021#4 281226915#1 281226915#2" color="blue"/>
    <route id="s_to_w" edges="64661021#3 64661021#4 281221763#0" color="blue"/>
    <route id="w_to_e" edges="480041825#7 480041825#9 4811637#0 4811637#1" color="red"/>
    <route id="w_to_n" edges="480041825#7 480041825#9 281221762#0 281221762#1" color="red"/>
    <route id="w_to_s" edges="480041825#7 4811642 281226915#2" color="red"/>
    <route id="w_to_w" edges="480041825#7 480041825#9 281221763#0 281221763#1" color="red"/>
    <!-- Vehicles, persons and containers (sorted by depart) -->
    <flow id="e_to_e0" begin="0.00" route="e_to_e" end="99999999.00" vehsPerHour="15"/>
    <flow id="e_to_n0" begin="0.00" route="e_to_n" end="99999999.00" vehsPerHour="60"/>
    <flow id="e_to_s0" begin="0.00" route="e_to_s" end="99999999.00" vehsPerHour="20"/>
    <flow id="e_to_w0" begin="0.00" route="e_to_w" end="99999999.00" vehsPerHour="75"/>
    <flow id="n_to_e0" begin="0.00" route="n_to_e" end="99999999.00" vehsPerHour="20"/>
    <flow id="n_to_n0" begin="0.00" route="n_to_n" end="99999999.00" vehsPerHour="15"/>
    <flow id="n_to_s0" begin="0.00" route="n_to_s" end="99999999.00" vehsPerHour="75"/>
    <flow id="n_to_w0" begin="0.00" route="n_to_w" end="99999999.00" vehsPerHour="60"/>
    <flow id="s_to_e0" begin="0.00" route="s_to_e" end="99999999.00" vehsPerHour="60"/>
    <flow id="s_to_n0" begin="0.00" route="s_to_n" end="99999999.00" vehsPerHour="75"/>
    <flow id="s_to_s0" begin="0.00" route="s_to_s" end="99999999.00" vehsPerHour="15"/>
    <flow id="s_to_w0" begin="0.00" route="s_to_w" end="99999999.00" vehsPerHour="20"/>
    <flow id="w_to_e0" begin="0.00" route="w_to_e" end="99999999.00" vehsPerHour="75"/>
    <flow id="w_to_n0" begin="0.00" route="w_to_n" end="99999999.00" vehsPerHour="20"/>
    <flow id="w_to_s0" begin="0.00" route="w_to_s" end="99999999.00" vehsPerHour="60"/>
    <flow id="w_to_w0" begin="0.00" route="w_to_w" end="99999999.00" vehsPerHour="15"/>
   <!-- <flow id="e_to_e1" begin="1800.00" route="e_to_e" end="3600.00" vehsPerHour="15"/> -->
    <!-- <flow id="e_to_n1" begin="1800.00" route="e_to_n" end="3600.00" vehsPerHour="60"/ -->
    <!-- <flow id="e_to_s1" begin="1800.00" route="e_to_s" end="3600.00" vehsPerHour="20"/ -->
    <!-- <flow id="e_to_w1" begin="1800.00" route="e_to_w" end="3600.00" vehsPerHour="75"/ -->
    <!-- <flow id="n_to_e1" begin="1800.00" route="n_to_e" end="3600.00" vehsPerHour="15"/ -->
    <!-- <flow id="n_to_n1" begin="1800.00" route="n_to_n" end="3600.00" vehsPerHour="60"/ -->
    <!-- <flow id="n_to_s1" begin="1800.00" route="n_to_s" end="3600.00" vehsPerHour="20"/ -->
    <!-- <flow id="n_to_w1" begin="1800.00" route="n_to_w" end="3600.00" vehsPerHour="75"/ -->
    <!-- <flow id="s_to_e1" begin="1800.00" route="s_to_e" end="3600.00" vehsPerHour="15"/ -->
    <!-- <flow id="s_to_n1" begin="1800.00" route="s_to_n" end="3600.00" vehsPerHour="60"/ -->
    <!-- <flow id="s_to_s1" begin="1800.00" route="s_to_s" end="3600.00" vehsPerHour="20"/ -->
    <!-- <flow id="s_to_w1" begin="1800.00" route="s_to_w" end="3600.00" vehsPerHour="75"/ -->
    <!-- <flow id="w_to_e1" begin="1800.00" route="w_to_e" end="3600.00" vehsPerHour="15"/ -->
    <!-- <flow id="w_to_n1" begin="1800.00" route="w_to_n" end="3600.00" vehsPerHour="60"/ -->
    <!-- <flow id="w_to_s1" begin="1800.00" route="w_to_s" end="3600.00" vehsPerHour="20"/ -->
    <!-- <flow id="w_to_w1" begin="1800.00" route="w_to_w" end="3600.00" vehsPerHour="75"/ -->

</routes>
