<?xml version="1.0" encoding="UTF-8"?>

<!-- generated on 2024-04-01 10:05:31 by Eclipse SUMO netedit Version v1_19_0+1552-1b122d1d49e
<configuration xmlns:xsi="http://www.w3.org/2001/XMLSchema-instance" xsi:noNamespaceSchemaLocation="http://sumo.dlr.de/xsd/neteditConfiguration.xsd">

    <input>
        <sumo-net-file value="net.net.xml"/>
    </input>

    <output>
        <output-file value="net.net.xml"/>
    </output>

    <processing>
        <geometry.min-radius.fix.railways value="false"/>
        <geometry.max-grade.fix value="false"/>
        <offset.disable-normalization value="true"/>
        <lefthand value="0"/>
    </processing>

    <junctions>
        <no-turnarounds value="true"/>
        <junctions.corner-detail value="5"/>
        <junctions.limit-turn-speed value="5.50"/>
        <rectangular-lane-cut value="0"/>
    </junctions>

    <pedestrian>
        <walkingareas value="0"/>
    </pedestrian>

</configuration>
-->

<net version="1.20" junctionCornerDetail="5" limitTurnSpeed="5.50" xmlns:xsi="http://www.w3.org/2001/XMLSchema-instance" xsi:noNamespaceSchemaLocation="http://sumo.dlr.de/xsd/net_file.xsd">

    <location netOffset="-454257.50,-2898394.24" convBoundary="1700.94,1893.49,2259.19,2403.83" origBoundary="50.542032,26.204418,50.592578,26.236816" projParameter="+proj=utm +zone=39 +ellps=WGS84 +datum=WGS84 +units=m +no_defs"/>

    <type id="highway.primary" priority="12" numLanes="2" speed="27.78" disallow="tram rail_urban rail rail_electric rail_fast ship" oneway="0"/>
    <type id="highway.primary_link" priority="7" numLanes="1" speed="22.22" disallow="tram rail_urban rail rail_electric rail_fast ship" oneway="0"/>
    <type id="highway.secondary" priority="11" numLanes="1" speed="27.78" disallow="tram rail_urban rail rail_electric rail_fast ship" oneway="0"/>
    <type id="highway.secondary_link" priority="6" numLanes="1" speed="22.22" disallow="tram rail_urban rail rail_electric rail_fast ship" oneway="0"/>
    <type id="highway.tertiary" priority="10" numLanes="1" speed="22.22" disallow="tram rail_urban rail rail_electric rail_fast ship" oneway="0"/>

    <edge id=":2852049694_0" function="internal">
        <lane id=":2852049694_0_0" index="0" disallow="tram rail_urban rail rail_electric rail_fast ship" speed="20.83" length="7.36" shape="1939.72,2160.70 1937.81,2159.64 1936.50,2158.89 1935.13,2158.28 1933.05,2157.66"/>
    </edge>
    <edge id=":2852049694_1" function="internal">
        <lane id=":2852049694_1_0" index="0" disallow="tram rail_urban rail rail_electric rail_fast ship" speed="19.44" length="7.59" shape="1940.94,2157.35 1938.78,2156.70 1937.39,2156.00 1935.99,2155.28 1933.85,2154.56"/>
        <lane id=":2852049694_1_1" index="1" disallow="tram rail_urban rail rail_electric rail_fast ship" speed="19.44" length="7.59" shape="1941.64,2154.23 1939.51,2153.58 1938.13,2152.89 1936.76,2152.17 1934.66,2151.46"/>
    </edge>
    <edge id=":30896502_0" function="internal">
        <lane id=":30896502_0_0" index="0" disallow="tram rail_urban rail rail_electric rail_fast ship" speed="20.83" length="36.39" shape="1844.40,2115.40 1855.28,2118.33 1865.74,2120.15 1874.47,2121.22 1880.14,2121.89"/>
    </edge>
    <edge id=":30896502_1" function="internal">
        <lane id=":30896502_1_0" index="0" disallow="tram rail_urban rail rail_electric rail_fast ship" speed="19.44" length="36.38" shape="1844.40,2115.40 1879.30,2125.43"/>
        <lane id=":30896502_1_1" index="1" disallow="tram rail_urban rail rail_electric rail_fast ship" speed="19.44" length="36.38" shape="1843.37,2118.43 1878.33,2128.48"/>
        <lane id=":30896502_1_2" index="2" disallow="tram rail_urban rail rail_electric rail_fast ship" speed="19.44" length="36.38" shape="1842.34,2121.46 1877.36,2131.53"/>
    </edge>
    <edge id=":30896504_0" function="internal">
        <lane id=":30896504_0_0" index="0" disallow="tram rail_urban rail rail_electric rail_fast ship" speed="20.83" length="26.53" shape="2004.84,2172.72 1979.28,2165.89"/>
        <lane id=":30896504_0_1" index="1" disallow="tram rail_urban rail rail_electric rail_fast ship" speed="20.83" length="26.53" shape="2005.69,2169.64 1979.98,2162.77"/>
    </edge>
    <edge id=":30896504_2" function="internal">
        <lane id=":30896504_2_0" index="0" disallow="tram rail_urban rail rail_electric rail_fast ship" speed="10.96" length="27.96" shape="2006.55,2166.55 1998.59,2163.52 1993.50,2159.23 1991.27,2153.69 1991.91,2146.91"/>
        <lane id=":30896504_2_1" index="1" disallow="tram rail_urban rail rail_electric rail_fast ship" speed="10.44" length="25.27" shape="2006.55,2166.55 1999.95,2163.87 1995.82,2159.84 1994.17,2154.48 1994.99,2147.77"/>
    </edge>
    <edge id=":30896504_4" function="internal">
        <lane id=":30896504_4_0" index="0" disallow="tram rail_urban rail rail_electric rail_fast ship" speed="5.37" length="10.38" shape="2006.55,2166.55 2003.99,2163.58 2003.52,2161.19 2005.16,2159.38 2008.88,2158.16"/>
        <lane id=":30896504_4_1" index="1" disallow="tram rail_urban rail rail_electric rail_fast ship" speed="4.46" length="10.38" shape="2006.55,2166.55 2004.93,2164.67 2004.64,2163.16 2005.67,2162.02 2008.03,2161.24"/>
    </edge>
    <edge id=":30896504_6" function="internal">
        <lane id=":30896504_6_0" index="0" disallow="tram rail_urban rail rail_electric rail_fast ship" speed="22.22" length="27.19" shape="2005.22,2150.62 1997.55,2176.65"/>
        <lane id=":30896504_6_1" index="1" disallow="tram rail_urban rail rail_electric rail_fast ship" speed="22.22" length="27.19" shape="2002.14,2149.76 1994.44,2175.89"/>
    </edge>
    <edge id=":30896504_8" function="internal">
        <lane id=":30896504_8_0" index="0" disallow="tram rail_urban rail rail_electric rail_fast ship" speed="11.52" length="29.07" shape="1999.06,2148.90 1995.64,2157.50 1991.20,2163.20 1985.75,2166.00 1979.28,2165.89"/>
        <lane id=":30896504_8_1" index="1" disallow="tram rail_urban rail rail_electric rail_fast ship" speed="11.01" length="26.47" shape="1999.06,2148.90 1996.01,2156.15 1991.82,2160.88 1986.48,2163.08 1979.98,2162.77"/>
    </edge>
    <edge id=":30896504_10" function="internal">
        <lane id=":30896504_10_0" index="0" disallow="tram rail_urban rail rail_electric rail_fast ship" speed="5.02" length="8.50" shape="1999.06,2148.90 1996.52,2151.08 1994.49,2151.48 1992.95,2150.09 1991.91,2146.91"/>
        <lane id=":30896504_10_1" index="1" disallow="tram rail_urban rail rail_electric rail_fast ship" speed="4.03" length="8.50" shape="1999.06,2148.90 1997.62,2150.14 1996.46,2150.37 1995.58,2149.57 1994.99,2147.77"/>
    </edge>
    <edge id=":30896504_12" function="internal">
        <lane id=":30896504_12_0" index="0" disallow="tram rail_urban rail rail_electric rail_fast ship" speed="20.83" length="27.19" shape="1982.72,2150.47 2008.88,2158.16"/>
        <lane id=":30896504_12_1" index="1" disallow="tram rail_urban rail rail_electric rail_fast ship" speed="20.83" length="27.19" shape="1982.02,2153.59 2008.03,2161.24"/>
    </edge>
    <edge id=":30896504_14" function="internal">
        <lane id=":30896504_14_0" index="0" disallow="tram rail_urban rail rail_electric rail_fast ship" speed="11.22" length="29.26" shape="1981.33,2156.71 1989.83,2159.67 1995.37,2163.98 1997.94,2169.64 1997.55,2176.65"/>
        <lane id=":30896504_14_1" index="1" disallow="tram rail_urban rail rail_electric rail_fast ship" speed="10.71" length="26.56" shape="1981.33,2156.71 1988.47,2159.36 1993.04,2163.44 1995.03,2168.95 1994.44,2175.89"/>
    </edge>
    <edge id=":30896504_16" function="internal">
        <lane id=":30896504_16_0" index="0" disallow="tram rail_urban rail rail_electric rail_fast ship" speed="5.54" length="11.40" shape="1981.33,2156.71 1984.26,2159.78 1984.89,2162.33 1983.24,2164.37 1979.28,2165.89"/>
        <lane id=":30896504_16_1" index="1" disallow="tram rail_urban rail rail_electric rail_fast ship" speed="4.66" length="11.40" shape="1981.33,2156.71 1983.26,2158.73 1983.68,2160.42 1982.59,2161.76 1979.98,2162.77"/>
    </edge>
    <edge id=":30896504_18" function="internal">
        <lane id=":30896504_18_0" index="0" disallow="tram rail_urban rail rail_electric rail_fast ship" speed="22.22" length="27.57" shape="1983.35,2173.17 1991.91,2146.91"/>
        <lane id=":30896504_18_1" index="1" disallow="tram rail_urban rail rail_electric rail_fast ship" speed="22.22" length="27.57" shape="1986.46,2173.94 1994.99,2147.77"/>
    </edge>
    <edge id=":30896504_20" function="internal">
        <lane id=":30896504_20_0" index="0" disallow="tram rail_urban rail rail_electric rail_fast ship" speed="11.07" length="29.02" shape="1989.57,2174.70 1992.57,2165.95 1996.79,2160.28 2002.23,2157.68 2008.88,2158.16"/>
        <lane id=":30896504_20_1" index="1" disallow="tram rail_urban rail rail_electric rail_fast ship" speed="10.54" length="26.23" shape="1989.57,2174.70 1992.25,2167.31 1996.22,2162.61 2001.48,2160.58 2008.03,2161.24"/>
    </edge>
    <edge id=":30896504_22" function="internal">
        <lane id=":30896504_22_0" index="0" disallow="tram rail_urban rail rail_electric rail_fast ship" speed="5.23" length="9.66" shape="1989.57,2174.70 1992.30,2172.19 1994.54,2171.68 1996.29,2173.17 1997.55,2176.65"/>
        <lane id=":30896504_22_1" index="1" disallow="tram rail_urban rail rail_electric rail_fast ship" speed="4.29" length="9.66" shape="1989.57,2174.70 1991.23,2173.17 1992.60,2172.86 1993.67,2173.76 1994.44,2175.89"/>
    </edge>
    <edge id=":30896506_0" function="internal">
        <lane id=":30896506_0_0" index="0" disallow="tram rail_urban rail rail_electric rail_fast ship" speed="22.22" length="17.11" shape="2030.01,2159.18 2032.76,2161.58 2035.62,2163.95 2039.28,2166.15 2044.43,2168.04"/>
    </edge>
    <edge id=":30896506_1" function="internal">
        <lane id=":30896506_1_0" index="0" disallow="tram rail_urban rail rail_electric rail_fast ship" speed="22.22" length="17.15" shape="2027.91,2163.45 2044.43,2168.04"/>
        <lane id=":30896506_1_1" index="1" disallow="tram rail_urban rail rail_electric rail_fast ship" speed="22.22" length="17.15" shape="2027.05,2166.53 2043.57,2171.12"/>
    </edge>
    <edge id=":30896523_0" function="internal">
        <lane id=":30896523_0_0" index="0" disallow="tram rail_urban rail rail_electric rail_fast ship" speed="22.22" length="29.99" shape="2011.31,2063.50 2013.45,2058.55 2016.50,2051.43 2019.70,2043.38 2022.27,2035.60"/>
    </edge>
    <edge id=":30896523_1" function="internal">
        <lane id=":30896523_1_0" index="0" disallow="tram rail_urban rail rail_electric rail_fast ship" speed="22.22" length="29.99" shape="2014.85,2064.68 2022.27,2035.60"/>
        <lane id=":30896523_1_1" index="1" disallow="tram rail_urban rail rail_electric rail_fast ship" speed="22.22" length="29.99" shape="2017.95,2065.49 2025.35,2036.46"/>
    </edge>
    <edge id=":30896524_0" function="internal">
        <lane id=":30896524_0_0" index="0" disallow="tram rail_urban rail rail_electric rail_fast ship" speed="22.22" length="23.86" shape="2018.85,2099.15 2017.49,2106.20 2017.22,2112.72 2017.48,2118.39 2017.70,2122.86"/>
    </edge>
    <edge id=":30896524_1" function="internal">
        <lane id=":30896524_1_0" index="0" disallow="tram rail_urban rail rail_electric rail_fast ship" speed="22.22" length="23.54" shape="2018.85,2099.15 2013.47,2122.18"/>
        <lane id=":30896524_1_1" index="1" disallow="tram rail_urban rail rail_electric rail_fast ship" speed="22.22" length="23.54" shape="2018.85,2099.15 2010.44,2121.14"/>
        <lane id=":30896524_1_2" index="2" disallow="tram rail_urban rail rail_electric rail_fast ship" speed="22.22" length="23.54" shape="2015.78,2098.25 2007.41,2120.10"/>
    </edge>
    <edge id=":5833506573_0" function="internal">
        <lane id=":5833506573_0_0" index="0" disallow="tram rail_urban rail rail_electric rail_fast ship" speed="22.22" length="18.08" shape="1969.83,2233.54 1970.74,2227.79 1970.54,2223.21 1969.80,2219.33 1969.11,2215.67"/>
    </edge>
    <edge id=":5833506573_1" function="internal">
        <lane id=":5833506573_1_0" index="0" disallow="tram rail_urban rail rail_electric rail_fast ship" speed="22.22" length="18.17" shape="1969.83,2233.54 1973.64,2215.87"/>
        <lane id=":5833506573_1_1" index="1" disallow="tram rail_urban rail rail_electric rail_fast ship" speed="22.22" length="18.17" shape="1972.93,2234.32 1976.77,2216.56"/>
        <lane id=":5833506573_1_2" index="2" disallow="tram rail_urban rail rail_electric rail_fast ship" speed="22.22" length="18.17" shape="1976.03,2235.11 1979.89,2217.26"/>
    </edge>
    <edge id=":5833506574_0" function="internal">
        <lane id=":5833506574_0_0" index="0" disallow="tram rail_urban rail rail_electric rail_fast ship" speed="22.22" length="6.33" shape="1993.97,2210.43 1992.97,2212.03 1992.28,2213.14 1991.76,2214.31 1991.30,2216.12"/>
    </edge>
    <edge id=":5833506574_1" function="internal">
        <lane id=":5833506574_1_0" index="0" disallow="tram rail_urban rail rail_electric rail_fast ship" speed="22.22" length="6.66" shape="1990.50,2209.18 1990.00,2211.09 1989.38,2212.33 1988.74,2213.56 1988.17,2215.46"/>
        <lane id=":5833506574_1_1" index="1" disallow="tram rail_urban rail rail_electric rail_fast ship" speed="22.22" length="6.66" shape="1987.34,2208.66 1986.85,2210.53 1986.24,2211.74 1985.60,2212.94 1985.03,2214.81"/>
    </edge>
    <edge id=":5833506580_0" function="internal">
        <lane id=":5833506580_0_0" index="0" disallow="tram rail_urban rail rail_electric rail_fast ship" speed="22.22" length="21.89" shape="2052.82,2183.37 2046.07,2182.29 2040.25,2182.58 2035.33,2183.59 2031.26,2184.64"/>
    </edge>
    <edge id=":5833506580_1" function="internal">
        <lane id=":5833506580_1_0" index="0" disallow="tram rail_urban rail rail_electric rail_fast ship" speed="22.22" length="21.64" shape="2052.82,2183.37 2046.90,2182.03 2042.50,2181.48 2037.94,2180.93 2031.56,2179.58"/>
        <lane id=":5833506580_1_1" index="1" disallow="tram rail_urban rail rail_electric rail_fast ship" speed="22.22" length="21.64" shape="2053.67,2180.29 2047.75,2178.95 2043.33,2178.39 2038.76,2177.83 2032.36,2176.48"/>
        <lane id=":5833506580_1_2" index="2" disallow="tram rail_urban rail rail_electric rail_fast ship" speed="22.22" length="21.64" shape="2053.67,2180.29 2033.16,2173.38"/>
    </edge>

    <edge id="281221761#1" from="5833506580" to="30896504" priority="10" type="highway.tertiary" spreadType="center" shape="2053.49,2181.90 1998.15,2167.70">
        <lane id="281221761#1_0" index="0" disallow="tram rail_urban rail rail_electric rail_fast ship" speed="22.22" length="27.53" shape="2031.56,2179.58 2004.84,2172.72"/>
        <lane id="281221761#1_1" index="1" disallow="tram rail_urban rail rail_electric rail_fast ship" speed="22.22" length="27.53" shape="2032.36,2176.48 2005.69,2169.64"/>
        <lane id="281221761#1_2" index="2" disallow="tram rail_urban rail rail_electric rail_fast ship" speed="22.22" length="27.53" shape="2033.16,2173.38 2006.55,2166.55"/>
    </edge>
    <edge id="281221762#0" from="30896504" to="5833506574" priority="11" type="highway.secondary" spreadType="center" shape="1997.92,2168.40 1990.84,2197.33 1986.56,2223.14">
        <lane id="281221762#0_0" index="0" disallow="tram rail_urban rail rail_electric rail_fast ship" speed="22.22" length="33.43" shape="1997.55,2176.65 1992.41,2197.65 1990.50,2209.18"/>
        <lane id="281221762#0_1" index="1" disallow="tram rail_urban rail rail_electric rail_fast ship" speed="22.22" length="33.43" shape="1994.44,2175.89 1989.27,2197.01 1987.34,2208.66"/>
    </edge>
    <edge id="281221762#1" from="5833506574" to="30896385" priority="11" type="highway.secondary" spreadType="center" shape="1986.56,2223.14 1983.36,2238.44 1981.55,2245.36">
        <lane id="281221762#1_0" index="0" disallow="tram rail_urban rail rail_electric rail_fast ship" speed="22.22" length="30.63" acceleration="1" shape="1991.30,2216.12 1986.48,2239.17 1984.65,2246.17"/>
        <lane id="281221762#1_1" index="1" disallow="tram rail_urban rail rail_electric rail_fast ship" speed="22.22" length="30.63" shape="1988.17,2215.46 1983.36,2238.44 1981.55,2245.36"/>
        <lane id="281221762#1_2" index="2" disallow="tram rail_urban rail rail_electric rail_fast ship" speed="22.22" length="30.63" shape="1985.03,2214.81 1980.24,2237.71 1978.45,2244.55"/>
    </edge>
    <edge id="281221763#0" from="30896504" to="2852049694" priority="12" type="highway.primary" spreadType="center" shape="1987.66,2166.12 1922.03,2151.50">
        <lane id="281221763#0_0" index="0" disallow="tram rail_urban rail rail_electric rail_fast ship" speed="19.44" length="39.28" shape="1979.28,2165.89 1940.94,2157.35"/>
        <lane id="281221763#0_1" index="1" disallow="tram rail_urban rail rail_electric rail_fast ship" speed="19.44" length="39.28" shape="1979.98,2162.77 1941.64,2154.23"/>
    </edge>
    <edge id="281221763#1" from="2852049694" to="5816267976" priority="12" type="highway.primary" spreadType="center" shape="1922.03,2151.50 1912.52,2149.04 1903.13,2146.58">
        <lane id="281221763#1_0" index="0" disallow="tram rail_urban rail rail_electric rail_fast ship" speed="19.44" length="31.74" acceleration="1" shape="1933.05,2157.66 1911.71,2152.14 1902.32,2149.68"/>
        <lane id="281221763#1_1" index="1" disallow="tram rail_urban rail rail_electric rail_fast ship" speed="19.44" length="31.74" shape="1933.85,2154.56 1912.52,2149.04 1903.13,2146.58"/>
        <lane id="281221763#1_2" index="2" disallow="tram rail_urban rail rail_electric rail_fast ship" speed="19.44" length="31.74" shape="1934.66,2151.46 1913.33,2145.94 1903.94,2143.48"/>
    </edge>
    <edge id="281226915#1" from="30896504" to="30896523" priority="12" type="highway.primary" spreadType="center" shape="1991.27,2155.15 2016.53,2064.61 2026.25,2027.21">
        <lane id="281226915#1_0" index="0" disallow="tram rail_urban rail rail_electric rail_fast ship" speed="22.22" length="85.39" shape="1991.91,2146.91 2014.85,2064.68"/>
        <lane id="281226915#1_1" index="1" disallow="tram rail_urban rail rail_electric rail_fast ship" speed="22.22" length="85.39" shape="1994.99,2147.77 2017.95,2065.49"/>
    </edge>
    <edge id="281226915#2" from="30896523" to="4777497506" priority="12" type="highway.primary" spreadType="center" shape="2026.25,2027.21 2031.99,2006.49 2041.23,1978.60">
        <lane id="281226915#2_0" index="0" disallow="tram rail_urban rail rail_electric rail_fast ship" speed="22.22" length="60.03" shape="2022.27,2035.60 2030.46,2006.02 2039.71,1978.10"/>
        <lane id="281226915#2_1" index="1" disallow="tram rail_urban rail rail_electric rail_fast ship" speed="22.22" length="60.03" shape="2025.35,2036.46 2033.52,2006.96 2042.75,1979.10"/>
    </edge>
    <edge id="480041825#7" from="9658365647" to="30896502" priority="12" type="highway.primary" spreadType="center" shape="1700.94,2069.26 1724.98,2078.32 1829.17,2113.62">
        <lane id="480041825#7_0" index="0" disallow="tram rail_urban rail rail_electric rail_fast ship" speed="19.44" length="150.69" shape="1702.07,2066.27 1726.06,2075.31 1844.40,2115.40"/>
        <lane id="480041825#7_1" index="1" disallow="tram rail_urban rail rail_electric rail_fast ship" speed="19.44" length="150.69" shape="1700.94,2069.26 1724.98,2078.32 1843.37,2118.43"/>
        <lane id="480041825#7_2" index="2" disallow="tram rail_urban rail rail_electric rail_fast ship" speed="19.44" length="150.69" shape="1699.81,2072.25 1723.90,2081.33 1842.34,2121.46"/>
    </edge>
    <edge id="480041825#9" from="30896502" to="30896504" priority="12" type="highway.primary" spreadType="center" shape="1829.17,2113.62 1859.00,2123.11 1900.78,2134.71 1915.88,2138.47 1990.46,2155.52">
        <lane id="480041825#9_0" index="0" disallow="tram rail_urban rail rail_electric rail_fast ship" speed="19.44" length="106.71" shape="1879.30,2125.43 1901.59,2131.62 1916.62,2135.36 1982.72,2150.47"/>
        <lane id="480041825#9_1" index="1" disallow="tram rail_urban rail rail_electric rail_fast ship" speed="19.44" length="106.71" shape="1878.33,2128.48 1900.78,2134.71 1915.88,2138.47 1982.02,2153.59"/>
        <lane id="480041825#9_2" index="2" disallow="tram rail_urban rail rail_electric rail_fast ship" speed="19.44" length="106.71" shape="1877.36,2131.53 1899.97,2137.80 1915.14,2141.58 1981.33,2156.71"/>
    </edge>
    <edge id="480155244#4" from="11578115082" to="5833506573" priority="11" type="highway.secondary" spreadType="center" shape="1930.99,2403.83 1961.99,2277.42 1972.01,2237.96">
        <lane id="480155244#4_0" index="0" disallow="tram rail_urban rail rail_electric rail_fast ship" speed="22.22" length="174.62" shape="1927.88,2403.07 1958.89,2276.65 1969.83,2233.54"/>
        <lane id="480155244#4_1" index="1" disallow="tram rail_urban rail rail_electric rail_fast ship" speed="22.22" length="174.62" shape="1930.99,2403.83 1961.99,2277.42 1972.93,2234.32"/>
        <lane id="480155244#4_2" index="2" disallow="tram rail_urban rail rail_electric rail_fast ship" speed="22.22" length="174.62" shape="1934.10,2404.59 1965.09,2278.19 1976.03,2235.11"/>
    </edge>
    <edge id="480155244#5" from="5833506573" to="30896504" priority="11" type="highway.secondary" spreadType="center" shape="1972.01,2237.96 1981.51,2195.22 1988.15,2166.68">
        <lane id="480155244#5_0" index="0" disallow="tram rail_urban rail rail_electric rail_fast ship" speed="22.22" length="43.72" shape="1973.64,2215.87 1978.39,2194.51 1983.35,2173.17"/>
        <lane id="480155244#5_1" index="1" disallow="tram rail_urban rail rail_electric rail_fast ship" speed="22.22" length="43.72" shape="1976.77,2216.56 1981.51,2195.22 1986.46,2173.94"/>
        <lane id="480155244#5_2" index="2" disallow="tram rail_urban rail rail_electric rail_fast ship" speed="22.22" length="43.72" shape="1979.89,2217.26 1984.63,2195.93 1989.57,2174.70"/>
    </edge>
    <edge id="4811637#0" from="30896504" to="30896506" priority="10" type="highway.tertiary" spreadType="center" shape="1999.99,2157.35 2044.00,2169.58">
        <lane id="4811637#0_0" index="0" disallow="tram rail_urban rail rail_electric rail_fast ship" speed="22.22" length="19.74" shape="2008.88,2158.16 2027.91,2163.45"/>
        <lane id="4811637#0_1" index="1" disallow="tram rail_urban rail rail_electric rail_fast ship" speed="22.22" length="19.74" shape="2008.03,2161.24 2027.05,2166.53"/>
    </edge>
    <edge id="4811637#1" from="30896506" to="794031029" priority="10" type="highway.tertiary" spreadType="center">
        <lane id="4811637#1_0" index="0" disallow="tram rail_urban rail rail_electric rail_fast ship" speed="22.22" length="14.74" shape="2044.43,2168.04 2058.64,2171.97"/>
        <lane id="4811637#1_1" index="1" disallow="tram rail_urban rail rail_electric rail_fast ship" speed="22.22" length="14.74" shape="2043.57,2171.12 2057.78,2175.05"/>
    </edge>
    <edge id="4811639" from="30896524" to="30896506" priority="7" type="highway.primary_link" spreadType="center" shape="2017.65,2097.57 2017.69,2114.36 2017.70,2124.78 2017.89,2131.82 2018.91,2137.07 2019.92,2142.37 2021.47,2147.66 2024.34,2152.81 2027.44,2157.08 2032.77,2161.42 2044.00,2169.58">
        <lane id="4811639_0" index="0" disallow="tram rail_urban rail rail_electric rail_fast ship" speed="22.22" length="39.72" shape="2017.70,2122.86 2017.70,2124.78 2017.89,2131.82 2018.91,2137.07 2019.92,2142.37 2021.47,2147.66 2024.34,2152.81 2027.44,2157.08 2030.01,2159.18"/>
    </edge>
    <edge id="4811642" from="30896502" to="30896523" priority="7" type="highway.primary_link" spreadType="center" shape="1829.17,2113.62 1891.84,2123.79 1943.63,2133.10 1951.18,2133.54 1959.22,2133.81 1964.32,2132.49 1970.45,2130.80 1976.16,2128.11 1982.05,2123.95 1987.54,2117.43 1992.71,2108.70 2026.25,2027.21">
        <lane id="4811642_0" index="0" disallow="tram rail_urban rail rail_electric rail_fast ship" speed="22.22" length="172.78" shape="1880.14,2121.89 1891.84,2123.79 1943.63,2133.10 1951.18,2133.54 1959.22,2133.81 1964.32,2132.49 1970.45,2130.80 1976.16,2128.11 1982.05,2123.95 1987.54,2117.43 1992.71,2108.70 2011.31,2063.50"/>
    </edge>
    <edge id="484449878#6" from="30896412" to="5833506580" priority="10" type="highway.tertiary" spreadType="center" shape="2259.19,2245.77 2202.54,2227.94 2154.09,2211.88 2107.30,2196.80 2053.49,2181.90">
        <lane id="484449878#6_0" index="0" disallow="tram rail_urban rail rail_electric rail_fast ship" speed="22.22" length="215.68" shape="2258.71,2247.30 2202.05,2229.46 2153.59,2213.40 2106.84,2198.33 2052.82,2183.37"/>
        <lane id="484449878#6_1" index="1" disallow="tram rail_urban rail rail_electric rail_fast ship" speed="22.22" length="215.68" shape="2259.67,2244.24 2203.03,2226.42 2154.59,2210.36 2107.76,2195.27 2053.67,2180.29"/>
    </edge>
    <edge id="617083443" from="5833506573" to="2852049694" priority="7" type="highway.primary_link" spreadType="center" shape="1972.01,2237.96 1968.41,2210.29 1966.80,2198.10 1963.62,2185.15 1958.61,2178.32 1950.02,2168.01 1940.07,2160.88 1922.03,2151.50">
        <lane id="617083443_0" index="0" disallow="tram rail_urban rail rail_electric rail_fast ship" speed="22.22" length="65.58" shape="1969.11,2215.67 1968.41,2210.29 1966.80,2198.10 1963.62,2185.15 1958.61,2178.32 1950.02,2168.01 1940.07,2160.88 1939.72,2160.70"/>
    </edge>
    <edge id="617083445" from="5833506580" to="5833506574" priority="6" type="highway.secondary_link" spreadType="center" shape="2053.49,2181.90 2038.65,2182.93 2025.41,2185.99 2012.63,2190.22 2001.76,2197.95 1995.70,2207.46 1986.56,2223.14">
        <lane id="617083445_0" index="0" disallow="tram rail_urban rail rail_electric rail_fast ship" speed="22.22" length="47.52" shape="2031.26,2184.64 2025.41,2185.99 2012.63,2190.22 2001.76,2197.95 1995.70,2207.46 1993.97,2210.43"/>
    </edge>
    <edge id="64661021#3" from="314939356" to="30896524" priority="12" type="highway.primary" spreadType="center" shape="2078.92,1893.49 2064.58,1938.46 2053.70,1974.71 2017.65,2097.57">
        <lane id="64661021#3_0" index="0" disallow="tram rail_urban rail rail_electric rail_fast ship" speed="22.22" length="214.26" shape="2080.44,1893.98 2066.11,1938.93 2055.23,1975.17 2018.85,2099.15"/>
        <lane id="64661021#3_1" index="1" disallow="tram rail_urban rail rail_electric rail_fast ship" speed="22.22" length="214.26" shape="2077.40,1893.00 2063.05,1937.99 2052.17,1974.25 2015.78,2098.25"/>
    </edge>
    <edge id="64661021#4" from="30896524" to="30896504" priority="12" type="highway.primary" spreadType="center" shape="2017.65,2097.57 2015.21,2104.67 1999.76,2157.97">
        <lane id="64661021#4_0" index="0" disallow="tram rail_urban rail rail_electric rail_fast ship" speed="22.22" length="29.80" shape="2013.47,2122.18 2005.22,2150.62"/>
        <lane id="64661021#4_1" index="1" disallow="tram rail_urban rail rail_electric rail_fast ship" speed="22.22" length="29.80" shape="2010.44,2121.14 2002.14,2149.76"/>
        <lane id="64661021#4_2" index="2" disallow="tram rail_urban rail rail_electric rail_fast ship" speed="22.22" length="29.80" shape="2007.41,2120.10 1999.06,2148.90"/>
    </edge>

    <tlLogic id="0" type="static" programID="0" offset="0">
        <phase duration="30" state="GGrrrrrrrrrrGGrrrrrrrrrr"/>
        <phase duration="4"  state="yyrrrrrrrrrryyrrrrrrrrrr"/>
        <phase duration="30" state="rrrrrrGGrrrrrrrsrrGGrrrr"/>
        <phase duration="4"  state="rrrrrryyrrrrrrrrrryyrrrr"/>
        <phase duration="30" state="GGGGGGrrrrrrrrrrrrrrrrrr"/>
        <phase duration="4"  state="yyyyyyrrrrrrrrrrrrrrrrrr"/>
        <phase duration="30" state="rrrrrrGGGGGGrrrrrrrrrrrr"/>
        <phase duration="4"  state="rrrrrryyyyyyrrrrrrrrrrrr"/>
        <phase duration="30" state="rrrrrrrrrrrrGGGGGGrrrrrr"/>
        <phase duration="4"  state="rrrrrrrrrrrryyyyyyrrrrrr"/>
        <phase duration="30" state="rrrrrrrrrrrrrrrrrrGGGGGG"/>
        <phase duration="4"  state="rrrrrrrrrrrrrrrrrryyyyyy"/>
    </tlLogic>

    <junction id="11578115082" type="dead_end" x="1930.99" y="2403.83" incLanes="" intLanes="" shape="1935.65,2404.97 1926.33,2402.69"/>
    <junction id="2852049694" type="priority" x="1922.03" y="2151.50" incLanes="617083443_0 281221763#0_0 281221763#0_1" intLanes=":2852049694_0_0 :2852049694_1_0 :2852049694_1_1" shape="1938.98,2162.12 1940.46,2159.28 1940.59,2158.91 1941.99,2152.67 1939.37,2151.80 1938.51,2151.34 1937.65,2150.86 1936.57,2150.38 1935.06,2149.91 1932.65,2159.21 1935.11,2159.99 1935.92,2160.39 1936.72,2160.84 1937.68,2161.41">
        <request index="0" response="000" foes="000" cont="0"/>
        <request index="1" response="000" foes="000" cont="0"/>
        <request index="2" response="000" foes="000" cont="0"/>
    </junction>
    <junction id="30896385" type="dead_end" x="1981.55" y="2245.36" incLanes="281221762#1_0 281221762#1_1 281221762#1_2" intLanes="" shape="1986.19,2246.57 1976.91,2244.15"/>
    <junction id="30896412" type="dead_end" x="2259.19" y="2245.77" incLanes="" intLanes="" shape="2260.15,2242.72 2258.23,2248.82"/>
    <junction id="30896502" type="priority" x="1829.17" y="2113.62" incLanes="480041825#7_0 480041825#7_1 480041825#7_2" intLanes=":30896502_0_0 :30896502_1_0 :30896502_1_1 :30896502_1_2" shape="1876.87,2133.05 1879.79,2123.90 1879.88,2123.47 1880.39,2120.31 1872.77,2119.23 1867.08,2118.65 1862.38,2118.18 1857.74,2117.48 1852.23,2116.17 1844.91,2113.88 1841.83,2122.98">
        <request index="0" response="0000" foes="0000" cont="0"/>
        <request index="1" response="0000" foes="0000" cont="0"/>
        <request index="2" response="0000" foes="0000" cont="0"/>
        <request index="3" response="0000" foes="0000" cont="0"/>
    </junction>