<?xml version="1.0" encoding="UTF-8"?>

<!-- generated on 2024-03-15 20:31:29 by Eclipse SUMO netedit Version v1_19_0+1201-15e6959dda4
<configuration xmlns:xsi="http://www.w3.org/2001/XMLSchema-instance" xsi:noNamespaceSchemaLocation="http://sumo.dlr.de/xsd/neteditConfiguration.xsd">

    <input>
        <sumocfg-file value="/home/faidz-arante/Documents/sumo-traffic-capstone/sumo-things/main.sumocfg"/>
        <route-files value="/home/faidz-arante/Documents/sumo-traffic-capstone/sumo-things/main.rou.xml"/>
        <sumo-net-file value="net.net.xml"/>
    </input>

    <output>
        <output-file value="net.net.xml"/>
    </output>

    <processing>
        <geometry.min-radius.fix.railways value="false"/>
        <geometry.max-grade.fix value="false"/>
        <offset.disable-normalization value="true"/>
        <lefthand value="0"/>
    </processing>

    <junctions>
        <no-turnarounds value="true"/>
        <junctions.corner-detail value="5"/>
        <junctions.limit-turn-speed value="5.50"/>
        <rectangular-lane-cut value="0"/>
    </junctions>

    <pedestrian>
        <walkingareas value="0"/>
    </pedestrian>

</configuration>
-->

<net version="1.20" junctionCornerDetail="5" limitTurnSpeed="5.50" xmlns:xsi="http://www.w3.org/2001/XMLSchema-instance" xsi:noNamespaceSchemaLocation="http://sumo.dlr.de/xsd/net_file.xsd">

    <location netOffset="-454257.50,-2898394.24" convBoundary="1040.15,1578.20,2395.43,2767.75" origBoundary="50.542032,26.204418,50.592578,26.236816" projParameter="+proj=utm +zone=39 +ellps=WGS84 +datum=WGS84 +units=m +no_defs"/>

    <type id="highway.primary" priority="12" numLanes="2" speed="27.78" disallow="tram rail_urban rail rail_electric rail_fast ship" oneway="0"/>
    <type id="highway.primary_link" priority="7" numLanes="1" speed="22.22" disallow="tram rail_urban rail rail_electric rail_fast ship" oneway="0"/>
    <type id="highway.secondary" priority="11" numLanes="1" speed="27.78" disallow="tram rail_urban rail rail_electric rail_fast ship" oneway="0"/>
    <type id="highway.secondary_link" priority="6" numLanes="1" speed="22.22" disallow="tram rail_urban rail rail_electric rail_fast ship" oneway="0"/>
    <type id="highway.tertiary" priority="10" numLanes="1" speed="22.22" disallow="tram rail_urban rail rail_electric rail_fast ship" oneway="0"/>

    <edge id=":11578115081_0" function="internal">
        <lane id=":11578115081_0_0" index="0" disallow="tram rail_urban rail rail_electric rail_fast ship" speed="22.22" length="0.30" shape="1955.27,2278.49 1955.35,2278.20"/>
        <lane id=":11578115081_0_1" index="1" disallow="tram rail_urban rail rail_electric rail_fast ship" speed="22.22" length="0.30" shape="1958.36,2279.32 1958.44,2279.04"/>
        <lane id=":11578115081_0_2" index="2" disallow="tram rail_urban rail rail_electric rail_fast ship" speed="22.22" length="0.30" shape="1961.45,2280.16 1961.53,2279.87"/>
    </edge>
    <edge id=":11578115082_0" function="internal">
        <lane id=":11578115082_0_0" index="0" disallow="tram rail_urban rail rail_electric rail_fast ship" speed="22.22" length="0.10" shape="1944.37,2319.47 1944.37,2319.47"/>
        <lane id=":11578115082_0_1" index="1" disallow="tram rail_urban rail rail_electric rail_fast ship" speed="22.22" length="0.10" shape="1947.46,2320.28 1947.46,2320.28"/>
        <lane id=":11578115082_0_2" index="2" disallow="tram rail_urban rail rail_electric rail_fast ship" speed="22.22" length="0.10" shape="1950.55,2321.09 1950.55,2321.09"/>
    </edge>
    <edge id=":2852049694_0" function="internal">
        <lane id=":2852049694_0_0" index="0" disallow="tram rail_urban rail rail_electric rail_fast ship" speed="20.83" length="7.78" shape="1939.72,2160.70 1937.70,2159.58 1936.32,2158.77 1934.88,2158.13 1932.68,2157.48"/>
    </edge>
    <edge id=":2852049694_1" function="internal">
        <lane id=":2852049694_1_0" index="0" disallow="tram rail_urban rail rail_electric rail_fast ship" speed="19.44" length="8.03" shape="1940.94,2157.35 1938.66,2156.66 1937.19,2155.90 1935.73,2155.13 1933.46,2154.37"/>
        <lane id=":2852049694_1_1" index="1" disallow="tram rail_urban rail rail_electric rail_fast ship" speed="19.44" length="8.03" shape="1941.64,2154.23 1939.39,2153.54 1937.93,2152.79 1936.48,2152.02 1934.24,2151.27"/>
    </edge>
    <edge id=":30896382_0" function="internal">
        <lane id=":30896382_0_0" index="0" disallow="tram rail_urban rail rail_electric rail_fast ship" speed="22.22" length="0.29" shape="1871.58,2595.32 1871.68,2594.86"/>
        <lane id=":30896382_0_1" index="1" disallow="tram rail_urban rail rail_electric rail_fast ship" speed="22.22" length="0.29" shape="1874.71,2595.96 1874.78,2595.68"/>
        <lane id=":30896382_0_2" index="2" disallow="tram rail_urban rail rail_electric rail_fast ship" speed="22.22" length="0.29" shape="1877.85,2596.60 1877.87,2596.50"/>
    </edge>
    <edge id=":30896402_0" function="internal">
        <lane id=":30896402_0_0" index="0" disallow="tram rail_urban rail rail_electric rail_fast ship" speed="19.44" length="8.20" shape="1210.84,1907.47 1208.49,1906.92 1206.80,1906.91 1205.10,1906.90 1202.76,1906.35"/>
        <lane id=":30896402_0_1" index="1" disallow="tram rail_urban rail rail_electric rail_fast ship" speed="19.44" length="8.20" shape="1211.89,1904.44 1209.54,1903.90 1207.85,1903.89 1206.16,1903.88 1203.81,1903.33"/>
    </edge>
    <edge id=":30896403_0" function="internal">
        <lane id=":30896403_0_0" index="0" disallow="tram rail_urban rail rail_electric rail_fast ship" speed="19.44" length="0.29" shape="1360.68,1962.61 1360.49,1962.54"/>
        <lane id=":30896403_0_1" index="1" disallow="tram rail_urban rail rail_electric rail_fast ship" speed="19.44" length="0.29" shape="1361.81,1959.61 1361.53,1959.51"/>
        <lane id=":30896403_0_2" index="2" disallow="tram rail_urban rail rail_electric rail_fast ship" speed="19.44" length="0.29" shape="1362.93,1956.62 1362.58,1956.49"/>
    </edge>
    <edge id=":30896412_0" function="internal">
        <lane id=":30896412_0_0" index="0" disallow="tram rail_urban rail rail_electric rail_fast ship" speed="22.22" length="0.24" shape="2258.77,2247.32 2258.59,2247.26"/>
        <lane id=":30896412_0_1" index="1" disallow="tram rail_urban rail rail_electric rail_fast ship" speed="22.22" length="0.24" shape="2259.84,2244.30 2259.55,2244.21"/>
    </edge>
    <edge id=":30896417_0" function="internal">
        <lane id=":30896417_0_0" index="0" disallow="tram rail_urban rail rail_electric rail_fast ship" speed="22.22" length="0.30" shape="1891.98,2518.40 1892.05,2518.12"/>
        <lane id=":30896417_0_1" index="1" disallow="tram rail_urban rail rail_electric rail_fast ship" speed="22.22" length="0.30" shape="1895.07,2519.22 1895.15,2518.94"/>
        <lane id=":30896417_0_2" index="2" disallow="tram rail_urban rail rail_electric rail_fast ship" speed="22.22" length="0.30" shape="1898.16,2520.05 1898.24,2519.75"/>
    </edge>
    <edge id=":30896502_0" function="internal">
        <lane id=":30896502_0_0" index="0" disallow="tram rail_urban rail rail_electric rail_fast ship" speed="20.83" length="36.39" shape="1844.40,2115.40 1855.28,2118.33 1865.74,2120.15 1874.47,2121.22 1880.14,2121.89"/>
    </edge>
    <edge id=":30896502_1" function="internal">
        <lane id=":30896502_1_0" index="0" disallow="tram rail_urban rail rail_electric rail_fast ship" speed="19.44" length="36.38" shape="1844.40,2115.40 1879.30,2125.43"/>
        <lane id=":30896502_1_1" index="1" disallow="tram rail_urban rail rail_electric rail_fast ship" speed="19.44" length="36.38" shape="1843.37,2118.43 1878.33,2128.48"/>
        <lane id=":30896502_1_2" index="2" disallow="tram rail_urban rail rail_electric rail_fast ship" speed="19.44" length="36.38" shape="1842.34,2121.46 1877.36,2131.53"/>
    </edge>
    <edge id=":30896504_0" function="internal">
        <lane id=":30896504_0_0" index="0" disallow="tram rail_urban rail rail_electric rail_fast ship" speed="20.83" length="26.53" shape="2004.84,2172.72 1979.28,2165.89"/>
        <lane id=":30896504_0_1" index="1" disallow="tram rail_urban rail rail_electric rail_fast ship" speed="20.83" length="26.53" shape="2005.69,2169.64 1979.98,2162.77"/>
    </edge>
    <edge id=":30896504_2" function="internal">
        <lane id=":30896504_2_0" index="0" disallow="tram rail_urban rail rail_electric rail_fast ship" speed="10.96" length="27.96" shape="2006.55,2166.55 1998.59,2163.52 1993.50,2159.23 1991.27,2153.69 1991.91,2146.91"/>
        <lane id=":30896504_2_1" index="1" disallow="tram rail_urban rail rail_electric rail_fast ship" speed="10.44" length="25.27" shape="2006.55,2166.55 1999.95,2163.87 1995.82,2159.84 1994.17,2154.48 1994.99,2147.77"/>
    </edge>
    <edge id=":30896504_4" function="internal">
        <lane id=":30896504_4_0" index="0" disallow="tram rail_urban rail rail_electric rail_fast ship" speed="5.37" length="10.38" shape="2006.55,2166.55 2003.99,2163.58 2003.52,2161.19 2005.16,2159.38 2008.88,2158.16"/>
        <lane id=":30896504_4_1" index="1" disallow="tram rail_urban rail rail_electric rail_fast ship" speed="4.46" length="10.38" shape="2006.55,2166.55 2004.93,2164.67 2004.64,2163.16 2005.67,2162.02 2008.03,2161.24"/>
    </edge>
    <edge id=":30896504_6" function="internal">
        <lane id=":30896504_6_0" index="0" disallow="tram rail_urban rail rail_electric rail_fast ship" speed="22.22" length="27.19" shape="2005.22,2150.62 1997.55,2176.65"/>
        <lane id=":30896504_6_1" index="1" disallow="tram rail_urban rail rail_electric rail_fast ship" speed="22.22" length="27.19" shape="2002.14,2149.76 1994.44,2175.89"/>
    </edge>
    <edge id=":30896504_8" function="internal">
        <lane id=":30896504_8_0" index="0" disallow="tram rail_urban rail rail_electric rail_fast ship" speed="11.52" length="29.07" shape="1999.06,2148.90 1995.64,2157.50 1991.20,2163.20 1985.75,2166.00 1979.28,2165.89"/>
        <lane id=":30896504_8_1" index="1" disallow="tram rail_urban rail rail_electric rail_fast ship" speed="11.01" length="26.47" shape="1999.06,2148.90 1996.01,2156.15 1991.82,2160.88 1986.48,2163.08 1979.98,2162.77"/>
    </edge>
    <edge id=":30896504_10" function="internal">
        <lane id=":30896504_10_0" index="0" disallow="tram rail_urban rail rail_electric rail_fast ship" speed="5.02" length="8.50" shape="1999.06,2148.90 1996.52,2151.08 1994.49,2151.48 1992.95,2150.09 1991.91,2146.91"/>
        <lane id=":30896504_10_1" index="1" disallow="tram rail_urban rail rail_electric rail_fast ship" speed="4.03" length="8.50" shape="1999.06,2148.90 1997.62,2150.14 1996.46,2150.37 1995.58,2149.57 1994.99,2147.77"/>
    </edge>
    <edge id=":30896504_12" function="internal">
        <lane id=":30896504_12_0" index="0" disallow="tram rail_urban rail rail_electric rail_fast ship" speed="20.83" length="27.19" shape="1982.72,2150.47 2008.88,2158.16"/>
        <lane id=":30896504_12_1" index="1" disallow="tram rail_urban rail rail_electric rail_fast ship" speed="20.83" length="27.19" shape="1982.02,2153.59 2008.03,2161.24"/>
    </edge>
    <edge id=":30896504_14" function="internal">
        <lane id=":30896504_14_0" index="0" disallow="tram rail_urban rail rail_electric rail_fast ship" speed="11.22" length="29.26" shape="1981.33,2156.71 1989.83,2159.67 1995.37,2163.98 1997.94,2169.64 1997.55,2176.65"/>
        <lane id=":30896504_14_1" index="1" disallow="tram rail_urban rail rail_electric rail_fast ship" speed="10.71" length="26.56" shape="1981.33,2156.71 1988.47,2159.36 1993.04,2163.44 1995.03,2168.95 1994.44,2175.89"/>
    </edge>
    <edge id=":30896504_16" function="internal">
        <lane id=":30896504_16_0" index="0" disallow="tram rail_urban rail rail_electric rail_fast ship" speed="5.54" length="11.40" shape="1981.33,2156.71 1984.26,2159.78 1984.89,2162.33 1983.24,2164.37 1979.28,2165.89"/>
        <lane id=":30896504_16_1" index="1" disallow="tram rail_urban rail rail_electric rail_fast ship" speed="4.66" length="11.40" shape="1981.33,2156.71 1983.26,2158.73 1983.68,2160.42 1982.59,2161.76 1979.98,2162.77"/>
    </edge>
    <edge id=":30896504_18" function="internal">
        <lane id=":30896504_18_0" index="0" disallow="tram rail_urban rail rail_electric rail_fast ship" speed="22.22" length="27.57" shape="1983.35,2173.17 1991.91,2146.91"/>
        <lane id=":30896504_18_1" index="1" disallow="tram rail_urban rail rail_electric rail_fast ship" speed="22.22" length="27.57" shape="1986.46,2173.94 1994.99,2147.77"/>
    </edge>
    <edge id=":30896504_20" function="internal">
        <lane id=":30896504_20_0" index="0" disallow="tram rail_urban rail rail_electric rail_fast ship" speed="11.07" length="29.02" shape="1989.57,2174.70 1992.57,2165.95 1996.79,2160.28 2002.23,2157.68 2008.88,2158.16"/>
        <lane id=":30896504_20_1" index="1" disallow="tram rail_urban rail rail_electric rail_fast ship" speed="10.54" length="26.23" shape="1989.57,2174.70 1992.25,2167.31 1996.22,2162.61 2001.48,2160.58 2008.03,2161.24"/>
    </edge>
    <edge id=":30896504_22" function="internal">
        <lane id=":30896504_22_0" index="0" disallow="tram rail_urban rail rail_electric rail_fast ship" speed="5.23" length="9.66" shape="1989.57,2174.70 1992.30,2172.19 1994.54,2171.68 1996.29,2173.17 1997.55,2176.65"/>
        <lane id=":30896504_22_1" index="1" disallow="tram rail_urban rail rail_electric rail_fast ship" speed="4.29" length="9.66" shape="1989.57,2174.70 1991.23,2173.17 1992.60,2172.86 1993.67,2173.76 1994.44,2175.89"/>
    </edge>
    <edge id=":30896506_0" function="internal">
        <lane id=":30896506_0_0" index="0" disallow="tram rail_urban rail rail_electric rail_fast ship" speed="22.22" length="17.11" shape="2030.01,2159.18 2032.75,2161.58 2035.61,2163.96 2039.27,2166.16 2044.42,2168.04"/>
    </edge>
    <edge id=":30896506_1" function="internal">
        <lane id=":30896506_1_0" index="0" disallow="tram rail_urban rail rail_electric rail_fast ship" speed="22.22" length="17.15" shape="2027.91,2163.45 2044.42,2168.04"/>
        <lane id=":30896506_1_1" index="1" disallow="tram rail_urban rail rail_electric rail_fast ship" speed="22.22" length="17.15" shape="2027.05,2166.53 2043.58,2171.12"/>
    </edge>
    <edge id=":30896523_0" function="internal">
        <lane id=":30896523_0_0" index="0" disallow="tram rail_urban rail rail_electric rail_fast ship" speed="22.22" length="27.63" shape="2011.31,2063.50 2013.30,2058.88 2016.02,2052.52 2018.92,2045.21 2021.44,2037.81"/>
    </edge>
    <edge id=":30896523_1" function="internal">
        <lane id=":30896523_1_0" index="0" disallow="tram rail_urban rail rail_electric rail_fast ship" speed="22.22" length="27.62" shape="2014.85,2064.68 2021.44,2037.81"/>
        <lane id=":30896523_1_1" index="1" disallow="tram rail_urban rail rail_electric rail_fast ship" speed="22.22" length="27.62" shape="2017.95,2065.49 2024.51,2038.72"/>
    </edge>
    <edge id=":30896524_0" function="internal">
        <lane id=":30896524_0_0" index="0" disallow="tram rail_urban rail rail_electric rail_fast ship" speed="22.22" length="23.86" shape="2018.85,2099.15 2017.49,2106.20 2017.22,2112.72 2017.48,2118.39 2017.70,2122.86"/>
    </edge>
    <edge id=":30896524_1" function="internal">
        <lane id=":30896524_1_0" index="0" disallow="tram rail_urban rail rail_electric rail_fast ship" speed="22.22" length="23.52" shape="2018.85,2099.15 2013.47,2122.18"/>
        <lane id=":30896524_1_1" index="1" disallow="tram rail_urban rail rail_electric rail_fast ship" speed="22.22" length="23.52" shape="2015.78,2098.25 2010.44,2121.14"/>
        <lane id=":30896524_1_2" index="2" disallow="tram rail_urban rail rail_electric rail_fast ship" speed="22.22" length="23.52" shape="2015.78,2098.25 2007.41,2120.10"/>
    </edge>
    <edge id=":30896558_0" function="internal">
        <lane id=":30896558_0_0" index="0" disallow="tram rail_urban rail rail_electric rail_fast ship" speed="22.22" length="0.44" shape="2123.99,1793.80 2123.95,1793.85 2123.93,1793.89 2123.91,1793.93 2123.88,1793.99"/>
        <lane id=":30896558_0_1" index="1" disallow="tram rail_urban rail rail_electric rail_fast ship" speed="22.22" length="0.44" shape="2121.38,1791.94 2121.27,1792.10 2121.20,1792.22 2121.13,1792.33 2121.04,1792.51"/>
    </edge>
    <edge id=":314939356_0" function="internal">
        <lane id=":314939356_0_0" index="0" disallow="tram rail_urban rail rail_electric rail_fast ship" speed="22.22" length="0.10" shape="2114.70,1811.64 2114.74,1811.56"/>
        <lane id=":314939356_0_1" index="1" disallow="tram rail_urban rail rail_electric rail_fast ship" speed="22.22" length="0.10" shape="2111.86,1810.16 2111.82,1810.24"/>
    </edge>
    <edge id=":4715624507_0" function="internal">
        <lane id=":4715624507_0_0" index="0" disallow="tram rail_urban rail rail_electric rail_fast ship" speed="19.44" length="0.30" shape="1175.26,1896.71 1174.98,1896.61"/>
        <lane id=":4715624507_0_1" index="1" disallow="tram rail_urban rail rail_electric rail_fast ship" speed="19.44" length="0.30" shape="1176.32,1893.69 1176.04,1893.59"/>
    </edge>
    <edge id=":4777497506_0" function="internal">
        <lane id=":4777497506_0_0" index="0" disallow="tram rail_urban rail rail_electric rail_fast ship" speed="22.22" length="0.27" shape="2082.86,1846.75 2082.99,1846.46"/>
        <lane id=":4777497506_0_1" index="1" disallow="tram rail_urban rail rail_electric rail_fast ship" speed="22.22" length="0.27" shape="2085.81,1847.98 2085.91,1847.77"/>
    </edge>
    <edge id=":4779949665_0" function="internal">
        <lane id=":4779949665_0_0" index="0" disallow="tram rail_urban rail rail_electric rail_fast ship" speed="19.44" length="0.29" shape="1401.79,1952.15 1402.06,1952.23"/>
        <lane id=":4779949665_0_1" index="1" disallow="tram rail_urban rail rail_electric rail_fast ship" speed="19.44" length="0.29" shape="1400.77,1955.18 1401.06,1955.28"/>
    </edge>
    <edge id=":5816267976_0" function="internal">
        <lane id=":5816267976_0_0" index="0" disallow="tram rail_urban rail rail_electric rail_fast ship" speed="19.44" length="0.40" shape="1701.08,2090.37 1700.58,2090.19"/>
        <lane id=":5816267976_0_1" index="1" disallow="tram rail_urban rail rail_electric rail_fast ship" speed="19.44" length="0.40" shape="1702.08,2087.33 1701.70,2087.20"/>
        <lane id=":5816267976_0_2" index="2" disallow="tram rail_urban rail rail_electric rail_fast ship" speed="19.44" length="0.40" shape="1703.09,2084.29 1702.83,2084.20"/>
    </edge>
    <edge id=":5832475240_0" function="internal">
        <lane id=":5832475240_0_0" index="0" disallow="tram rail_urban rail rail_electric rail_fast ship" speed="19.44" length="0.10" shape="1166.35,1893.57 1166.27,1893.54"/>
        <lane id=":5832475240_0_1" index="1" disallow="tram rail_urban rail rail_electric rail_fast ship" speed="19.44" length="0.10" shape="1167.41,1890.55 1167.49,1890.58"/>
    </edge>
    <edge id=":5833506573_0" function="internal">
        <lane id=":5833506573_0_0" index="0" disallow="tram rail_urban rail rail_electric rail_fast ship" speed="22.22" length="19.48" shape="1969.68,2234.83 1970.96,2228.70 1970.78,2223.70 1969.90,2219.47 1969.11,2215.67"/>
    </edge>
    <edge id=":5833506573_1" function="internal">
        <lane id=":5833506573_1_0" index="0" disallow="tram rail_urban rail rail_electric rail_fast ship" speed="22.22" length="19.74" shape="1969.68,2234.83 1971.30,2229.33 1972.02,2225.45 1972.57,2221.53 1973.64,2215.87"/>
        <lane id=":5833506573_1_1" index="1" disallow="tram rail_urban rail rail_electric rail_fast ship" speed="22.22" length="19.74" shape="1972.72,2235.85 1974.36,2230.25 1975.11,2226.31 1975.67,2222.32 1976.77,2216.56"/>
        <lane id=":5833506573_1_2" index="2" disallow="tram rail_urban rail rail_electric rail_fast ship" speed="22.22" length="19.74" shape="1975.75,2236.86 1977.43,2231.17 1978.20,2227.16 1978.77,2223.11 1979.89,2217.26"/>
    </edge>
    <edge id=":5833506574_0" function="internal">
        <lane id=":5833506574_0_0" index="0" disallow="tram rail_urban rail rail_electric rail_fast ship" speed="22.22" length="5.39" shape="1993.97,2210.43 1993.14,2211.80 1992.57,2212.75 1992.14,2213.75 1991.72,2215.29"/>
    </edge>
    <edge id=":5833506574_1" function="internal">
        <lane id=":5833506574_1_0" index="0" disallow="tram rail_urban rail rail_electric rail_fast ship" speed="22.22" length="5.60" shape="1990.50,2209.18 1990.10,2210.81 1989.62,2211.88 1989.12,2212.93 1988.61,2214.54"/>
        <lane id=":5833506574_1_1" index="1" disallow="tram rail_urban rail rail_electric rail_fast ship" speed="22.22" length="5.60" shape="1987.34,2208.66 1986.95,2210.23 1986.49,2211.24 1985.99,2212.26 1985.49,2213.80"/>
    </edge>
    <edge id=":5833506580_0" function="internal">
        <lane id=":5833506580_0_0" index="0" disallow="tram rail_urban rail rail_electric rail_fast ship" speed="22.22" length="21.89" shape="2052.82,2183.37 2046.07,2182.29 2040.25,2182.58 2035.33,2183.59 2031.26,2184.64"/>
    </edge>
    <edge id=":5833506580_1" function="internal">
        <lane id=":5833506580_1_0" index="0" disallow="tram rail_urban rail rail_electric rail_fast ship" speed="22.22" length="21.64" shape="2052.82,2183.37 2046.90,2182.03 2042.50,2181.48 2037.94,2180.93 2031.56,2179.58"/>
        <lane id=":5833506580_1_1" index="1" disallow="tram rail_urban rail rail_electric rail_fast ship" speed="22.22" length="21.64" shape="2053.67,2180.29 2047.75,2178.95 2043.33,2178.39 2038.76,2177.83 2032.36,2176.48"/>
        <lane id=":5833506580_1_2" index="2" disallow="tram rail_urban rail rail_electric rail_fast ship" speed="22.22" length="21.64" shape="2053.67,2180.29 2033.16,2173.38"/>
    </edge>
    <edge id=":5844721158_0" function="internal">
        <lane id=":5844721158_0_0" index="0" disallow="tram rail_urban rail rail_electric rail_fast ship" speed="19.44" length="0.30" shape="1644.02,2068.95 1643.72,2068.83"/>
        <lane id=":5844721158_0_1" index="1" disallow="tram rail_urban rail rail_electric rail_fast ship" speed="19.44" length="0.30" shape="1645.15,2065.95 1644.87,2065.85"/>
        <lane id=":5844721158_0_2" index="2" disallow="tram rail_urban rail rail_electric rail_fast ship" speed="19.44" length="0.30" shape="1646.27,2062.96 1646.03,2062.86"/>
    </edge>
    <edge id=":5844721159_0" function="internal">
        <lane id=":5844721159_0_0" index="0" disallow="tram rail_urban rail rail_electric rail_fast ship" speed="19.44" length="0.41" shape="1599.40,2052.39 1598.89,2052.21"/>
        <lane id=":5844721159_0_1" index="1" disallow="tram rail_urban rail rail_electric rail_fast ship" speed="19.44" length="0.41" shape="1600.41,2049.35 1600.02,2049.22"/>
        <lane id=":5844721159_0_2" index="2" disallow="tram rail_urban rail rail_electric rail_fast ship" speed="19.44" length="0.41" shape="1601.41,2046.32 1601.14,2046.22"/>
    </edge>
    <edge id=":776005414_0" function="internal">
        <lane id=":776005414_0_0" index="0" disallow="tram rail_urban rail rail_electric rail_fast ship" speed="16.66" length="0.27" shape="1152.22,1867.31 1152.44,1867.39"/>
        <lane id=":776005414_0_1" index="1" disallow="tram rail_urban rail rail_electric rail_fast ship" speed="16.66" length="0.27" shape="1151.13,1870.32 1151.42,1870.42"/>
    </edge>
    <edge id=":794031029_0" function="internal">
        <lane id=":794031029_0_0" index="0" disallow="tram rail_urban rail rail_electric rail_fast ship" speed="22.22" length="0.26" shape="2107.42,2185.16 2107.72,2185.25"/>
        <lane id=":794031029_0_1" index="1" disallow="tram rail_urban rail rail_electric rail_fast ship" speed="22.22" length="0.26" shape="2106.58,2188.25 2106.79,2188.31"/>
    </edge>
    <edge id=":9306257036_0" function="internal">
        <lane id=":9306257036_0_0" index="0" disallow="tram rail_urban rail rail_electric rail_fast ship" speed="19.44" length="0.30" shape="1278.94,1910.37 1279.22,1910.46"/>
        <lane id=":9306257036_0_1" index="1" disallow="tram rail_urban rail rail_electric rail_fast ship" speed="19.44" length="0.30" shape="1277.90,1913.39 1278.18,1913.49"/>
    </edge>
    <edge id=":9595578608_0" function="internal">
        <lane id=":9595578608_0_0" index="0" disallow="tram rail_urban rail rail_electric rail_fast ship" speed="19.44" length="0.28" shape="1516.07,1993.74 1516.30,1993.82"/>
        <lane id=":9595578608_0_1" index="1" disallow="tram rail_urban rail rail_electric rail_fast ship" speed="19.44" length="0.28" shape="1514.91,1996.72 1515.20,1996.83"/>
    </edge>
    <edge id=":9595578610_0" function="internal">
        <lane id=":9595578610_0_0" index="0" disallow="tram rail_urban rail rail_electric rail_fast ship" speed="19.44" length="0.10" shape="1444.52,1966.11 1444.60,1966.14"/>
        <lane id=":9595578610_0_1" index="1" disallow="tram rail_urban rail rail_electric rail_fast ship" speed="19.44" length="0.10" shape="1443.52,1969.15 1443.44,1969.12"/>
    </edge>
    <edge id=":9658365647_0" function="internal">
        <lane id=":9658365647_0_0" index="0" disallow="tram rail_urban rail rail_electric rail_fast ship" speed="19.44" length="8.71" shape="1641.95,2041.85 1644.24,2042.56 1645.93,2042.68 1647.61,2042.80 1649.91,2043.49"/>
        <lane id=":9658365647_0_1" index="1" disallow="tram rail_urban rail rail_electric rail_fast ship" speed="19.44" length="8.71" shape="1641.95,2041.85 1644.05,2043.03 1645.31,2044.16 1646.57,2045.29 1648.68,2046.44"/>
        <lane id=":9658365647_0_2" index="2" disallow="tram rail_urban rail rail_electric rail_fast ship" speed="19.44" length="8.71" shape="1641.95,2041.85 1644.01,2043.55 1644.69,2045.64 1645.37,2047.72 1647.44,2049.39"/>
        <lane id=":9658365647_0_3" index="3" disallow="tram rail_urban rail rail_electric rail_fast ship" speed="19.44" length="8.71" shape="1640.69,2044.79 1643.33,2045.11 1645.29,2044.16 1647.26,2043.19 1649.91,2043.49"/>
        <lane id=":9658365647_0_4" index="4" disallow="tram rail_urban rail rail_electric rail_fast ship" speed="19.44" length="8.71" shape="1640.69,2044.79 1642.99,2045.51 1644.68,2045.63 1646.37,2045.75 1648.68,2046.44"/>
        <lane id=":9658365647_0_5" index="5" disallow="tram rail_urban rail rail_electric rail_fast ship" speed="19.44" length="8.71" shape="1640.69,2044.79 1642.80,2045.97 1644.06,2047.11 1645.32,2048.24 1647.44,2049.39"/>
    </edge>
    <edge id=":9693309473_0" function="internal">
        <lane id=":9693309473_0_0" index="0" disallow="tram rail_urban rail rail_electric rail_fast ship" speed="19.44" length="0.27" shape="1568.71,2012.89 1569.03,2013.02"/>
        <lane id=":9693309473_0_1" index="1" disallow="tram rail_urban rail rail_electric rail_fast ship" speed="19.44" length="0.27" shape="1567.62,2015.90 1567.80,2015.97"/>
    </edge>
    <edge id=":9693309474_0" function="internal">
        <lane id=":9693309474_0_0" index="0" disallow="tram rail_urban rail rail_electric rail_fast ship" speed="19.44" length="0.26" shape="1578.18,2016.85 1578.38,2016.93"/>
        <lane id=":9693309474_0_1" index="1" disallow="tram rail_urban rail rail_electric rail_fast ship" speed="19.44" length="0.26" shape="1576.94,2019.81 1577.22,2019.92"/>
    </edge>

    <edge id="1127460588#0" from="30896402" to="4715624507" priority="12" type="highway.primary" spreadType="center">
        <lane id="1127460588#0_0" index="0" disallow="tram rail_urban rail rail_electric rail_fast ship" speed="19.44" length="29.13" shape="1202.76,1906.35 1175.26,1896.71"/>
        <lane id="1127460588#0_1" index="1" disallow="tram rail_urban rail rail_electric rail_fast ship" speed="19.44" length="29.13" shape="1203.81,1903.33 1176.32,1893.69"/>
    </edge>
    <edge id="1127460588#1" from="4715624507" to="5832475240" priority="12" type="highway.primary" spreadType="center">
        <lane id="1127460588#1_0" index="0" disallow="tram rail_urban rail rail_electric rail_fast ship" speed="19.44" length="9.15" shape="1174.98,1896.61 1166.35,1893.57"/>
        <lane id="1127460588#1_1" index="1" disallow="tram rail_urban rail rail_electric rail_fast ship" speed="19.44" length="9.15" shape="1176.04,1893.59 1167.41,1890.55"/>
    </edge>
    <edge id="1127460588#2" from="5832475240" to="30896401" priority="12" type="highway.primary" spreadType="center">
        <lane id="1127460588#2_0" index="0" disallow="tram rail_urban rail rail_electric rail_fast ship" speed="19.44" length="137.17" shape="1166.27,1893.54 1039.54,1841.04"/>
        <lane id="1127460588#2_1" index="1" disallow="tram rail_urban rail rail_electric rail_fast ship" speed="19.44" length="137.17" shape="1167.49,1890.58 1040.76,1838.08"/>
    </edge>
    <edge id="281221761#1" from="5833506580" to="30896504" priority="10" type="highway.tertiary" spreadType="center" shape="2053.49,2181.90 1998.15,2167.70">
        <lane id="281221761#1_0" index="0" disallow="tram rail_urban rail rail_electric rail_fast ship" speed="22.22" length="27.53" shape="2031.56,2179.58 2004.84,2172.72"/>
        <lane id="281221761#1_1" index="1" disallow="tram rail_urban rail rail_electric rail_fast ship" speed="22.22" length="27.53" shape="2032.36,2176.48 2005.69,2169.64"/>
        <lane id="281221761#1_2" index="2" disallow="tram rail_urban rail rail_electric rail_fast ship" speed="22.22" length="27.53" shape="2033.16,2173.38 2006.55,2166.55"/>
    </edge>
    <edge id="281221762#0" from="30896504" to="5833506574" priority="11" type="highway.secondary" spreadType="center" shape="1997.92,2168.40 1990.84,2197.33 1986.56,2223.14">
        <lane id="281221762#0_0" index="0" disallow="tram rail_urban rail rail_electric rail_fast ship" speed="22.22" length="33.43" shape="1997.55,2176.65 1992.41,2197.65 1990.50,2209.18"/>
        <lane id="281221762#0_1" index="1" disallow="tram rail_urban rail rail_electric rail_fast ship" speed="22.22" length="33.43" shape="1994.44,2175.89 1989.27,2197.01 1987.34,2208.66"/>
    </edge>