<?xml version="1.0" encoding="UTF-8"?>

<!-- generated on 2024-03-06 19:21:06.433809 by randomTrips.py UNKNOWN
<configuration>
    <net-file value="net.net.xml"/>
    <additional-files value="./vehicle-class.add.xml"/>
    <route-file value="routes.rou.xml"/>
    <trip-attributes value="type=&quot;myType&quot;"/>
    <fringe-factor value="max"/>
    <allow-fringe value="True"/>
</configuration>
-->

<!-- generated on 2024-03-06 19:20:53 by Eclipse SUMO duarouter Version v1_19_0+1150-b3812776e28
<configuration xmlns:xsi="http://www.w3.org/2001/XMLSchema-instance" xsi:noNamespaceSchemaLocation="http://sumo.dlr.de/xsd/duarouterConfiguration.xsd">

    <input>
        <net-file value="net.net.xml"/>
        <additional-files value="./vehicle-class.add.xml"/>
        <route-files value="trips.trips.xml"/>
    </input>

    <output>
        <output-file value="routes.rou.xml"/>
        <alternatives-output value="NUL"/>
    </output>

    <time>
        <begin value="0"/>
        <end value="3600.0"/>
    </time>

    <report>
        <no-warnings value="true"/>
        <ignore-errors value="true"/>
        <no-step-log value="true"/>
    </report>

</configuration>
-->

<routes xmlns:xsi="http://www.w3.org/2001/XMLSchema-instance" xsi:noNamespaceSchemaLocation="http://sumo.dlr.de/xsd/routes_file.xsd">
    <vType id="myType" vClass="passenger" carFollowModel="EIDM"/>
    <vehicle id="0" type="myType" depart="0.00">
        <route edges="1042398959 -100261894 100261852#2 100261852#3 693588727#0 693588727#1 64825979#20 64825976 4812987#4 4812987#5 4812987#6 4812987#7 4812987#8 480039692#8 480039692#9 480039692#10 480041825#0 480041825#1 480041825#2 480041825#3 480041825#4 480041825#5 480041825#6 480041825#7 4811642 281226915#2 281226915#3 281226915#4 4812949#0 4812949#1 4812949#2 4812949#3 116575389 -843266716 100220138#0 100220138#1 100220138#2 -100220151#0"/>
    </vehicle>
    <vehicle id="1" type="myType" depart="1.00">
        <route edges="-1163382660 1163382661#1 800644164#4 100102430#0 100102430#1 -53377425#3 -114868577#2 -114868577#1 -114868577#0 1040545012#2 675672538 1052635865 1205121036#4 1040773091#0 1040773091#1 1040773091#2 1040773091#3 1040773091#4 1040773091#5 1040773091#6 1040561728 1040561730 1040561729 114868534#0 114868534#1 114868534#2 114868534#3 204800909 61484936#1 61484936#2 61484936#3 61484936#4 61484936#5 617283089 64661075#0 64661075#1 64661075#2 64661075#3 64661075#4 64661075#5 64661075#6 64661075#7 64661075#8 64661075#9 64661075#10 64661075#11 64661075#12 64661075#13 64661075#14 64661075#15 1046533243 1046533242 571174658 571174659 1059219133#0 1059219133#1 483753750 64661113#0 64661113#1 64661113#2 64661113#3 64661113#4 64661113#5 64661113#6 64661113#7 64661113#8 -485010496#14 -485010496#13 -485010496#12 -485010496#11 -485010496#10 -485010496#9 -485010496#8 -485010496#7 -485010496#6 -485010496#5 -485010496#4 -485010496#3 -485010496#2 -485010496#1 -485010496#0 1053086173#0 1053086173#1 1053083228 1053083226 1053086169 486622620 59584979#0 59584979#1 59584979#2 115600399#0 115600399#1 115600399#2 -476699916"/>
    </vehicle>
    <vehicle id="2" type="myType" depart="2.00">
        <route edges="115600464#0 115600464#1 115600464#2 115600464#3 115600464#4 115600464#5 115600464#6 115600464#7 115600464#8 675486986#0 675486986#1 -485010496#13 -67151381#5 -67151381#4 -67151381#3 -67151381#2 -67151381#1 1058968320#1 1058968320#2 1058968320#3 1058968320#4 1058968320#5 -59584951#1 -59584951#0 64661048#0 64661048#1 64661048#2 64661048#3 64661048#4 571176043 571176041 571176040#0 571176040#1 571176040#2 571176040#3 571176040#4 571176040#5 571176040#6 571176040#7 571176040#8 571176040#9 351271608#0 351271608#1 571371457 571371453 571371450 1051819253#0 1051819253#1 1051819253#2 1051819253#3 1051819252 62213813#0 62213813#1 62213813#2 62213813#3 100220146#0 100220146#1 100220146#2 100220146#3 100220146#4 100220146#5 100220146#6 100220146#7 100220146#8 100220146#9 -116575388#3 -116575388#2 -116575388#1 116575426"/>
    </vehicle>
    <vehicle id="3" type="myType" depart="3.00">
        <route edges="485010506 1198573616 -62213818#1 -62213818#0 -1061641508#5 -1061641508#4 -1061641508#3 -1061641508#2 -1061641508#1 -1061641508#0 100132885#0 100132885#1 100132885#2 100132876 64661044#1 64661044#2 488037869#1 489102229#0 489102229#1 571388674 483989415 571371457 571371453 571371450 1051819253#0 1051819253#1 1051819253#2 1051819253#3 1051819252 62213813#0 62213813#1 62213813#2 62213813#3 100220146#0 100220146#1 100220146#2 100220146#3 100220146#4 100220146#5 100220146#6 100220146#7 100220146#8 100220146#9 -116575388#3 -116575388#2 116575441#1 -1054899279"/>
    </vehicle>
    <vehicle id="4" type="myType" depart="4.00">
        <route edges="-485010502 -100119180#3 -100119180#2 -100119180#1 -100119180#0 -67151381#1 1058968320#1 1058968320#2 1058968320#3 1058968320#4 1058968320#5 -59584951#1 -59584951#0 64661048#0 64661048#1 64661048#2 64661048#3 64661048#4 571176043 571176041 571176040#0 571176040#1 571176040#2 571176040#3 571176040#4 571176040#5 571176040#6 571176040#7 571176040#8 571176040#9 351271608#0 351271608#1 571371457 571371453 571371450 1051819253#0 1051819253#1 1051819253#2 1051819253#3 1051819252 62213813#0 62213813#1 62213813#2 62213813#3 100220146#0 100220146#1 100220146#2 -100220144#7 -116575463 -100220154#0"/>
    </vehicle>
    <vehicle id="7" type="myType" depart="7.00">
        <route edges="1053447847 -1053447847 1133153811 1133153810#0 1133153810#1 484582235#0 1133153813 1126184489#0 1126184489#1 1126184489#2 1126184489#3 571396551 62213816 1204835087#1 1204835087#2 1204835087#3 1204835087#4 1204835087#5 1204835085 64661042#0 64661042#1 64661042#2 64661042#3 64661042#4 64661042#5 64661042#6 64661042#7 64661042#8 64661042#9 64661042#10 64661042#11 1053083226 1053086169 1053083227#0 1053083227#1 1053083227#2 1053083227#3 1053083227#4 845496624#0 845496623#1 1053083230#0 100226203 -100226199#4 100226196#0 100226196#1 100226196#2 1059277807"/>
    </vehicle>
    <vehicle id="8" type="myType" depart="8.00">
        <route edges="-1130578759 -100261890#0 -64825979#15 -64825979#14 100261886#0 100261881#0 100261881#1 100261881#2 1130575528"/>
    </vehicle>
    <vehicle id="9" type="myType" depart="9.00">
        <route edges="38488233#0 38488233#1 1060262211 1060262210#0 1060262210#1 845496623#0 845496623#1 1053083230#0 1053083230#1 1053083230#2 1053083229 1053086170 59584822#0 59584822#1 59584822#2 59584822#3 59584822#4 59584822#5 59584822#6 59584822#7 59584822#8 59584822#9 59584822#10 59584822#11 1205166757#0 1205166757#1 485156067#0 100219598 -100219599#1 -100219599#0 100132895#5 100132895#6 100132895#7 100132895#8 100132895#9 -100219590#1 -100219590#0"/>
    </vehicle>
    <vehicle id="10" type="myType" depart="10.00">
        <route edges="346013417#0 346013417#1 -59585148#10 -59585148#9 -59585148#8 -59585148#7 -59585148#6 -59585148#5 -59585148#4 -59585148#3 -59585148#2 -59585148#1 -59585148#0 59585150 4812987#2 4812987#3 4812987#4 4812987#5 4812987#6 4812987#7 4812987#8 480039692#8 480039692#9 480039692#10 480041825#0 480041825#1 480041825#2 480041825#3 480041825#4 480041825#5 480041825#6 480041825#7 4811642 281226915#2 281226915#3 281226915#4 4812949#0 4812949#1 4812949#2 4812949#3 116575389 -843266716 100220138#0 -100220123#2 -100220158#1 -100220129#1 -100220135#1 116575465"/>
    </vehicle>
    <vehicle id="11" type="myType" depart="11.00">
        <route edges="-248646153#2 -248646153#1 -248646153#0 -248646135#5 -248646135#4 -248646135#3 -248646135#2 -248646135#1 -248646135#0 484746308 476389623#5 476389623#6 476389623#7 4811623#5 4811623#6 4811623#7 4811626#0 4811626#1 4811626#2 4811626#3 4811626#4 4811626#5 4811626#6 4811626#7 480155244#0 480155244#1 480155244#2 480155244#3 480155244#4 480155244#5 4811637#0 4811637#1 4811637#2 4811637#3 4811637#4 484449879#0 484449879#1 4811638#0 4811638#1 4811638#2 4811638#3 4811638#4 4811638#5 4811638#6 4811638#7 64661049#0 64661049#1 64661049#2 64661049#3 64661049#4 64661049#5 64661049#6 64661114#0 64661114#1 488089966#0 488089966#1 64398429#0 64398429#1 64398429#2 116575437#0 116575437#1 116575437#2 116575437#3 116575437#4 116575437#5 116575437#6 116575437#7 116575437#8 116575437#9 116575437#10 116575437#11 116575437#12 116575437#13 116575437#14 116575437#15 116575437#16 116575437#17 116575437#18 116575437#19 116575437#20 116575437#21 116575437#22 116575437#23 116575437#24 116575437#25 116575437#26 116575437#27 116575437#28 116575437#29 116575437#30 116575437#31 116575437#32 116575437#33 489439622#0 489439622#1 489439622#2 489439622#3 489439623#0 489439623#1 800644164#0 800644164#1 800644164#2 -1163382659"/>
    </vehicle>
    <vehicle id="12" type="myType" depart="12.00">
        <route edges="64660985#0 62216654#7 64660986#1 64660986#2 64660991#1 -64661070#0"/>
    </vehicle>
    <vehicle id="13" type="myType" depart="13.00">
        <route edges="-1040817243 -479509711#2 -479509711#1 -479509711#0 675672539#0 675672539#1 675672539#2 675672539#3 675672539#4 1040545011 1040811776 1040545012#0 1040545012#1 1040545012#2 675672538 1052635865 1205121036#4 1040773091#0 1040773091#1 1040773091#2 1040773091#3 1040773091#4 1040773091#5 1040773091#6 1040561728 1040561730 1040561729 114868534#0 114868534#1 114868534#2 114868534#3 204800909 61484936#1 61484936#2 61484936#3 28656596#0 28656596#1 28656596#2 28656596#3 28656596#4 28656596#5 28656596#6 28656596#7 28656596#8 28656596#9 28656596#10 28656596#11 28656596#12 28656596#13 28656596#14 28656596#15 485002157#0 485002157#1 485002157#2 485002157#3 485002157#4 485002157#5 485002157#6 485002157#7 485002157#8 485002157#9 485002157#10 64660961#0 64660961#1 64660961#2 64660961#3 64660961#4 64660961#5 483989418 571371463 1051819253#0 1051819253#1 1051819253#2 1051819253#3 1051819252 59584890 1204835087#0 1204835087#1 1204835087#2 1204835087#3 1204835087#4 1204835087#5 1204835085 64661042#0 64661042#1 100219212 486666916#0 -1055103377#1 -1055103377#0"/>
    </vehicle>
    <vehicle id="14" type="myType" depart="14.00">
        <route edges="478341807#0 478341806#0 478341806#1 -100261851#5 -100261851#4 -100261851#3 -100261851#2 -100261851#1 -100261851#0 485217355#4 485217355#5 1130591500 -100261889#1 -100261889#0 64825979#13 100261886#0 100261886#1 100261852#0 1130590753"/>
    </vehicle>
    <vehicle id="15" type="myType" depart="15.00">
        <route edges="346013417#0 346013415 -248646137#4 -248646137#3 -248646137#2 -248646137#1 -248646137#0 484746301 476389623#2 476389623#3 476389623#4 476389623#5 476389623#6 476389623#7 4811623#5 4811623#6 4811623#7 4811623#8 4811623#0 4811623#1 4812955#0 4812955#1 4812955#2 63097384 479526229#0 479526229#1 4811616 4811617 845511476 845511472 845511473 240568528#0 240568528#1 240568528#2"/>
    </vehicle>
    <vehicle id="16" type="myType" depart="16.00">
        <route edges="-64661024#1 64660953 -483747798#5 -483747798#4 -483747798#3 -483747798#2 -483747798#1 -483747798#0 59585058 1060262210#6 1060262210#7 1060262210#8 64660996 571174658 571174660#0 571174660#1 571174660#2 571174660#3 571174660#4 571174660#5 571174660#6 571173490#0 571173490#1 571173490#2 64661081#0 64661081#1 571175434 67151337#0 67151337#1 67151337#2 67151337#3 67151337#4 67151337#5 67151337#6 67151337#7 64661092#0 64661092#1 64661092#2 64661092#3 64661092#4 64661092#5 64661092#6 64661092#7 64661092#8 61484935#0 61484935#1 61484935#2 61484935#3 61484935#4 61484935#5 61484935#6 61484935#7 61484935#8 61484935#9 61484935#10 61484935#11 61484935#12 61484935#13 488089966#0 488089966#1 64398429#0 64398429#1 64398429#2 64398429#3 64398429#4 64398429#5 116575419#0 116575419#1 64661037"/>
    </vehicle>
    <vehicle id="17" type="myType" depart="17.00">
        <route edges="-476703086 476703084#2 100891701#3 618633206#0 618633206#1 618633206#2 618633206#3 618633206#4 62213860#9 62213860#10 62213860#11 62213860#12 62213860#13 62213860#14 62213860#15 62213860#16 62213860#17 62213860#18 62213860#19 62213860#20 351037185 480039692#3 480039692#4 480039692#5 480039692#6 480039692#7 480039692#8 480039692#9 480039692#10 480041825#0 480041825#1 480041825#2 480041825#3 480041825#4 480041825#5 480041825#6 480041825#7 4811642 281226915#2 281226915#3 281226915#4 281226915#5 100220130 1051819253#1 1051819253#2 1051819253#3 1051819252 59584890 1204835087#0 1204835087#1 1204835087#2 1204835087#3 1204835087#4 1204835087#5 1204835085 64661042#0 64661042#1 64661042#2 64661042#3 486864924 100219241#0 -1198583045 -1059552149 1059552150#1"/>
    </vehicle>
    <vehicle id="18" type="myType" depart="18.00">
        <route edges="476699916 -115600399#2 -115600399#1 -115600399#0 -59584979#2 -59584979#1 -59584979#0 1046345718 1053083227#1 1053083227#2 1053083227#3 1053083227#4 845496624#0 845496623#1 1053083230#0 1053083230#1 1053083230#2 1053083229 1053086170 59584822#0 59584822#1 67151384 67151335#1 67151335#2 67151335#3 618348650 -1058968319#1 -1058968319#0 1058968320#0 1058968320#1 1058968320#2 1058968320#3 1058968320#4 1058968320#5 -59584951#1 -59584951#0 64661048#0 64661048#1 64661048#2 64661048#3 64661048#4 571176043 67151356#0 67151356#1 571175434 67151337#0 67151337#1 67151337#2 67151337#3 67151337#4 67151337#5 67151337#6 67151337#7 64661092#0 64661092#1 64661092#2 64661092#3 64661092#4 64661092#5 64661092#6 67151290 489102231#3 489102231#4 489102231#5 489102231#6 61484936#5 61484936#6 204798808 -114868534#3 -114868534#2 1233207118 100102441#0 100102441#1 100102441#2 100102441#3 100102441#4 100102441#5 1040811777 -675672539#4 -675672539#3 -675672539#2 -675672539#1 114705867#0 114705867#1 114705867#2 114705867#3 114868550#0 114868550#1"/>
    </vehicle>
    <vehicle id="19" type="myType" depart="19.00">
        <route edges="480039692#0 480039692#1 480039692#2 480039692#3 480039692#4 480039692#5 480039692#6 480039692#7 480039692#8 4812988 1127460588#3 1127460588#4 1127460588#5 1127460588#6 1127460588#7 1127460588#8 -100261899#4 -100261899#3 -100261899#2 -100261899#1 -100261899#0 -485222132#1 -485222132#0 1127497658"/>
    </vehicle>
    <vehicle id="22" type="myType" depart="22.00">
        <route edges="-100261902#2 -100261902#1 100261867#0 100261867#1 485217355#1 485217355#2 485217355#3 485217355#4 485217355#5 485217355#6 485217355#7 485217355#8 485217355#9 485217355#10 1173183658 100261858 -485222132#7 -485222132#6 -485222132#5 -485222132#4 -485222132#3 -485222132#2 -485222132#1 -485229076 485230259#2 485229074 -476749323#0"/>
    </vehicle>
    <vehicle id="23" type="myType" depart="23.00">
        <route edges="-1042408414#1 1042408416 1042408415 -485183856#2 -485183856#1 -485183856#0 -484000821#0 100220121#0 100220121#1 1205177030 1205177029#0 1205177029#1 1205177029#2 1205177029#3 1205177029#4 1133153813 1126184489#0 1126184489#1 1126184489#2 1126184489#3 571396551 484582230 64660973 488037869#0 488037869#1 351272800#0 351272800#1 571371451 571371449 571371461 64661021#0 64661021#1 64661021#2 64661021#3 64661021#4 281221763#0 281221763#1 281221763#2 281221763#3 281221763#4 281221763#5 1127460588#0 1127460588#1 1127460588#2 1127460588#3 1127460588#4 1127460588#5 100261855 -100261851#6 -100261851#5 -100261851#4 -100261851#3 -100261851#2 -100261851#1 -100261851#0 -485217355#3 -485217355#2 -485217355#1 -485217355#0"/>
    </vehicle>
    <vehicle id="26" type="myType" depart="26.00">
        <route edges="-115600472#1 -115600472#0 -100119172#2 -115600463#1 -100119173#2 -100119173#1 -100119173#0 617231030#0 64661048#2 64661048#3 64661048#4 571176043 571176041 571176040#0 571176040#1 571176040#2 571176040#3 571176040#4 571176040#5 571176040#6 571176040#7 571176040#8 571176040#9 571176040#10 571371464#0 571371464#1 483989416 483989413 64661021#0 64661021#1 64661021#2 64661021#3 64661021#4 281221762#0 281221762#1 4811614#0 4811614#1 4811614#2 4811614#3 61484938 61513824 4811645 4811644 566822280 305970026#0 305970026#1 305970026#2 61419931"/>
    </vehicle>
    <vehicle id="27" type="myType" depart="27.00">
        <route edges="1051272516 -62213854#8 -62213854#7 -62213854#6 -62213854#5 -62213854#4 -62213854#3 -62213854#2 -62213854#1 -62213854#0 -62213859#0 1051272518#1 -1051014918#2 -1051014918#1 -1051014918#0 1051014917 480041825#7 480041825#9 281221762#0 281221762#1 4811614#0 4811614#1 1055721999 4811628#1 4811628#2 1047624034 240568529#0 240568529#1 240568529#2 240568529#3 240568529#4 240568529#5 240568529#6 4811623#1 4811623#2 4811623#3 4812956#0 4812956#1 4812956#2 4812956#3 1127446618 63097650#0 63097650#1 63097650#2 478331736#0 478331736#1 478331736#2 478331736#3 478331736#4 478331736#5 63097568 1135180104"/>
    </vehicle>
    <vehicle id="28" type="myType" depart="28.00">
        <route edges="-1058968321#1 -1058968321#0 100119172#0 100119172#1 -115600463#1 -100119173#2 -100119173#1 -100119173#0 617231030#0 64661048#2 64661048#3 64661048#4 571176043 571176041 571176040#0 571176040#1 571176040#2 571176040#3 571176040#4 571176040#5 571176040#6 571176040#7 571176040#8 571176040#9 571176040#10 571371464#0 571371464#1 483989416 483989413 64661021#0 64661021#1 64661021#2 64661021#3 64661021#4 281221762#0 281221762#1 4811614#0 4811614#1 4811614#2 845511472 845511473 240568528#0 240568528#1 240568528#2"/>
    </vehicle>
    <vehicle id="30" type="myType" depart="30.00">
        <route edges="65001494#0 65001494#1 65001494#2 65001494#3 65001412#0 65001412#1 489098950#2 489098950#3 489098950#4 489098952#0 489098952#1 484131183 484131185 61484937#0 61484937#1 61484937#2 61484937#3 61484937#4 61484937#5 61484937#6 61484937#7 100102428#0 100102428#1 100102428#2 100102428#3 100102428#4 100102428#5 100102428#6 100102428#7 100102428#8 100102428#9 67151349#0 67151349#1 67151349#2 67151349#3 487524438#0 487524438#1 1052396488#0 1052396488#1 1052396488#2 1052396486#0 1052396486#1 487524437#0 487524437#1 487524437#2 487524437#3 487524437#4 100136137#0 100136137#1 100136137#2 100136137#3 -100136101#0 1051484754#0 1051484754#1 1051484754#2 1051484754#3 67151337#1 -115096413#1 485015221 67151360#1 100137338#0 100137338#1 487845015 571173490#2 572680194#0 572680194#1 670579606#0 670579606#1 670579606#2 670579606#3 670579606#4 670579606#5 670579606#6 59584951#0 59584951#1 1058968317#0 1058968317#1 1058968317#2 1058968317#3 1058968317#4 1058968317#5 1058968319#0 1058968319#1 618348655#0 618348655#1 618348655#2 67151321#0 67151321#1 67151321#2 100219217#0 64661042#9 64661042#10 64661042#11 1053083226 1053086169 1053083227#0 1053083227#1 1053146152 115096452#0 115096452#1 115096407#0 115096445"/>
    </vehicle>
    <vehicle id="31" type="myType" depart="31.00">
        <route edges="-67151273#7 -67151273#6 -67151273#5 -67151273#4 -67151273#3 -67151273#2 -67151273#1 -67151273#0 484449882#0 484449882#1 62216669#9 62216669#10 62216669#11 62216669#12 62216669#13 1203847017 281221760#0 281221760#1 281221760#2 281221760#3 4811632 484449878#6 281221761#0 281221761#1 281226915#1 281226915#2 281226915#3 281226915#4 4812949#0 4812949#1 4812949#2 4812949#3 116575389 -843266716 100220138#0 100220138#1 100220138#2 100220138#3 -100220158#5 116575435#0 116575435#1 116575435#2"/>
    </vehicle>
    <vehicle id="34" type="myType" depart="34.00">
        <route edges="-1198527595 100220126#1 1198527594 62213854#2 62213854#3 62213854#4 62213854#5 62213854#6 62213854#7 62213854#8 62213854#9 -1055736003#3 -1055736003#2 -1055736003#1 -1055736003#0 -100220146#2 -100220146#1 -116575433 116575404#1 116575398#0 116575398#1 116575398#2 843266716 843266717#0 4812949#5 4812949#6 59584890 64660973 488037869#0 488037869#1 489102229#0 1051832711#0 351272168#0 351272168#1 351272168#2 351272168#3 351272168#4 351272168#5 1061641508#0 1061641508#1 1061641508#2 1061641508#3 1061641508#4 1061641508#5 62213818#0 62213818#1 -1198573616 -485010506"/>
    </vehicle>
    <vehicle id="35" type="myType" depart="35.00">
        <route edges="-1128472125 -100261903#1 -100261903#0 64825979#9 64825979#10 64825979#11 64825979#12 64825979#13 64825979#14 64825979#15 64825979#16 64825979#17 64825979#18 64825979#19 64825979#20 64825976 4812987#4 4812987#5 4812987#6 4812987#7 4812987#8 480039692#8 480039692#9 480039692#10 480041825#0 480041825#1 480041825#2 480041825#3 480041825#4 480041825#5 62213839 1051014918#0 1051014918#1 1051014918#2 1051272518#2 1051272518#3 1051272518#4 1051272518#0 62213859#0 62213854#0 62213854#1 62213854#2 62213854#3 62213854#4 62213854#5 670572908 1198528361 474704454#4 474704454#5 116575388#0 116575388#1 116575388#2 -100220149 -100220146#8 -100220146#7 100220145#0 100220145#1 100220145#2 618339820"/>
    </vehicle>
    <vehicle id="36" type="myType" depart="36.00">
        <route edges="484553248#0 484553248#1 484553248#2 484553248#3 1205177029#0 1205177029#1 1205177029#2 1205177029#3 1205177029#4 1133153813 1126184489#0 1126184489#1 1126184489#2 1126184489#3 571396551 484582230 64660973 488037869#0 488037869#1 351272800#0 351272800#1 571371451 571371449 571371461 64661021#0 64661021#1 28656567 64660967#0 64660967#1 64660998#3 -64660980#2 -64660980#1 -64660980#0"/>
    </vehicle>
    <vehicle id="37" type="myType" depart="37.00">
        <route edges="1054071430#0 -847214635 1054071428#2 847214633 478334317#3 479723165#0 479723165#1 1127460588#1 1127460588#2 1127460588#3 4812987#8 480039692#8 480039692#9 480039692#10 480041825#0 480041825#1 480041825#2 480041825#3 480041825#4 480041825#5 62213839 1051014918#0 1051014918#1 1051014918#2 1051272518#2 1051272518#3 1051272518#4 1051272518#0 62213859#0 62213854#0 62213854#1 62213854#2 62213854#3 62213854#4 62213854#5 670572908 1198528361 -474704454#3 -474704454#2 -474704454#1 100220119#4"/>
    </vehicle>
    <vehicle id="38" type="myType" depart="38.00">
        <route edges="62213819#0 62213819#1 100132887#0 100132887#1 100132887#2 100132887#3 100132887#4 100132885#2 100132876 64661044#1 64661044#2 488037869#1 351272800#0 351272800#1 571371451 571371449 571371461 64661021#0 64661021#1 64661021#2 64661021#3 64661021#4 281221762#0 281221762#1 4811614#0 4811614#1 1055721999 4811628#1 4811628#2 1047624034 240568529#0 240568529#1 240568529#2 240568529#3 240568529#4 240568529#5 240568529#6 4811623#1 4811623#2 4811623#3 4811623#4 4811623#5 4812987#0 4812987#1 4812987#2 4812987#3 4812987#4 693325512 695006515#0 695006515#1 100261873#0 1042398960"/>
    </vehicle>
    <vehicle id="39" type="myType" depart="39.00">
        <route edges="-115600421#1 -115600421#0 115600325#4 115600325#5 115600325#6 -485010496#1 -485010496#0 1053086173#0 1053086173#1 59584822#0 59584822#1 67151384 67151335#1 67151335#2 67151335#3 618348650 -1058968319#1 -1058968319#0 1058968320#0 1058968320#1 1058968320#2 1058968320#3 1058968320#4 1058968320#5 -59584951#1 -59584951#0 64661048#0 64661048#1 64661048#2 64661048#3 64661048#4 571176043 571176041 571176040#0 571176040#1 571176040#2 571176040#3 571176040#4 571176040#5 571176040#6 571176040#7 571176040#8 571176040#9 571176040#10 571371464#0 571371464#1 483989416 483989413 64661021#0 64661021#1 64661021#2 64661021#3 64661021#4 281221763#0 281221763#1 281221763#2 281221763#3 281221763#4 281221763#5 1127460588#0 1127460588#1 1127460588#2 1127460588#3 1127460588#4 1127460588#5 100261855 -100261851#6 -100261851#5 -478341808#2 478341804 -478341812#1 -478341812#0"/>
    </vehicle>
    <vehicle id="40" type="myType" depart="40.00">
        <route edges="-675486987 478312056 110485786#6 1055126739 1055126738#0 1055126738#1 -483747798#3 -483747798#2 -483747798#1 -483747798#0 59585058 1060262210#6 1060262210#7 1060262210#8 64660996 571174658 571174659 1059219133#0 1059219133#1 1059219133#2 1059219133#3 1059219133#4 64825960#0 -485010500#2 -485010500#1 -485010500#0"/>
    </vehicle>
    <vehicle id="41" type="myType" depart="41.00">
        <route edges="100220129#0 100220129#1 -100220158#0 116575398#2 843266716 843266717#0 4812949#5 4812949#6 59584890 64660973 488037869#0 488037869#1 351272800#0 351272800#1 571371451 571371449 571371461 64661021#0 64661021#1 64661021#2 64661021#3 64661021#4 281221763#0 281221763#1 281221763#2 281221763#3 281221763#4 281221763#5 1127460588#0 1127460588#1 1127460588#2 1127460588#3 1127460588#4 1127460588#5 100261855 -100261851#6 -100261851#5 -100261851#4 -100261851#3 -100261851#2 -100261851#1 -100261851#0 485217355#4 485217355#5 1130591500 -100261889#1 -100261889#0 64825979#13 100261886#0 100261881#0 100261881#1 100261881#2 100261881#3 485229736"/>
    </vehicle>
    <vehicle id="42" type="myType" depart="42.00">
        <route edges="-480149196#8 -480149196#7 -480149196#6 -480149196#5 64660999#0 64660999#1 64660999#2 64660999#3 64660999#4 64660999#5 64660999#6 64660974#0 64660974#1 484459786#0 484459786#1 484459786#2 484459786#3 484459786#4 484459786#5 1047814498#0 1047814498#1 484459784 64660961#2 64660961#3 64660961#4 64660961#5 483989418 571371463 1051819253#0 1051819253#1 1051819253#2 1051819253#3 1051819252 62213813#0 62213813#1 62213813#2 62213813#3 62213813#4 484000811 -62213854#13 -62213854#12 -62213854#11 -62213854#10 -62213854#9 -62213854#8 476440646#0 476440646#1 -476440648#3 -476440648#2 -476440648#1 -476440648#0"/>
    </vehicle>
    <vehicle id="43" type="myType" depart="43.00">
        <route edges="843183747#0 843183747#1 843183747#2 64661030#0 -485208372#7 -485208372#6 -476696941#0 1042256237 484077648#5 484077648#6 484077648#7 484077648#8 484077648#9 484077648#10 484077648#11 484077648#12 484077648#13 484077648#14 484077648#15 484077648#16 484077648#17 484077648#18 484077648#19 484077648#20 484077648#21 484077648#22 64398429#7 64377452#16 64377452#17 64377452#18 64377452#19 64377452#20 64377452#21 64377452#22 64377452#23 617250368 62216669#0 62216669#1 62216669#2 62216669#3 62216669#4 62216669#5 484086604#0 484086604#1 100102446 -100102419#4 116575429#0 116575429#1 116575429#2 116575429#3 1054822109"/>
    </vehicle>
    <vehicle id="45" type="myType" depart="45.00">
        <route edges="-1042417575 62213862#6 62213841#0 62213841#1 -62213812#0 -62213819#2 100132887#0 100132887#1 100132887#2 100132887#3 100132887#4 100132885#2 100132876 64661044#1 64661044#2 488037869#1 489102229#0 489102229#1 571388674 483989415 571371455 1204059034#0 1204059034#1 1204059034#2 100119872#0 100119872#1 100119872#2 100119872#3 100119872#4 100119872#5 100119872#6 100119872#7 485002156 489102231#0 489102231#1 61484935#0 61484935#1 61484935#2 61484935#3 61484935#4 61484935#5 61484935#6 61484935#7 61484935#8 61484935#9 61484935#10 61484935#11 61484935#12 61484935#13 488089966#0 488089966#1 64398429#0 64398429#1 64398429#2 116575437#0 116575437#1 116575437#2 116575437#3 116575437#4 116575437#5 116575437#6 116575437#7 116575437#8 116575437#9 116575437#10 116575437#11 116575437#12 116575437#13 116575437#14 116575437#15 116575437#16 116575437#17 116575437#18 116575437#19 116575437#20 116575437#21 116575437#22 116575437#23 116575437#24 116575437#25 116575437#26 116575437#27 116575437#28 116575437#29 116575437#30 116575437#31 116575437#32 116575437#33 489439622#0 114868594#5 114868594#6 114868594#7 114868594#8"/>
    </vehicle>
    <vehicle id="47" type="myType" depart="47.00">
        <route edges="-100226192#1 -100226192#0 64661113#1 64661113#2 64661113#3 64661113#4 64661113#5 64661113#6 64661113#7 64661113#8 -485010496#14 -485010496#13 -67151381#5 -67151381#4 -67151381#3 -67151381#2 -67151381#1 1058968320#1 1058968320#2 1058968320#3 1058968320#4 1058968320#5 -59584951#1 -59584951#0 64661048#0 64661048#1 64661048#2 64661048#3 64661048#4 571176043 571176041 571176040#0 571176040#1 571176040#2 571176040#3 571176040#4 571176040#5 571176040#6 571176040#7 571176040#8 571176040#9 351271608#0 351271608#1 571371457 571371453 571371450 1051819253#0 1051819253#1 1051819253#2 1051819253#3 1051819252 62213813#0 62213813#1 62213813#2 62213813#3 62213813#4 62213813#5 62213813#6 62213813#7 62213813#8 1053447845 1133153811 1133153810#0 1133153810#1 484582235#0 1133153813 1126184489#0 62213820#0 100219585"/>
    </vehicle>
    <vehicle id="49" type="myType" depart="49.00">
        <route edges="64661058#0 64661089#2 -64660967#0 28656570 64661021#3 4811639 4811637#1 4811637#2 4811637#3 4811637#4 484449879#0 484449879#1 4811638#0 4811638#1 4811638#2 4811638#3 4811638#4 4811638#5 4811638#6 4811638#7 64661049#0 64661049#1 64661049#2 64661049#3 64661049#4 64661049#5 64661049#6 64661114#0 64661114#1 488089966#0 488089966#1 64398429#0 64398429#1 64398429#2 116575437#0 116575437#1 116575437#2 116575437#3 116575437#4 116575437#5 116575437#6 116575437#7 116575437#8 116575437#9 116575437#10 116575437#11 116575437#12 116575437#13 116575437#14 116575437#15 116575437#16 116575437#17 116575437#18 116575437#19 116575437#20 116575437#21 116575437#22 116575437#23 116575437#24 116575437#25 116575437#26 116575437#27 116575437#28 116575437#29 116575437#30 114868590#5 114868590#6 114868590#7 114868590#8 114868590#9 114868590#10 1040773091#0 996605302 64377454#0 -204802493#0 485185780"/>
    </vehicle>
    <vehicle id="50" type="myType" depart="50.00">
        <route edges="-100136065 100137307#0 100137307#1 100137307#2 100137307#3 100137307#4 100137307#5 100137307#6 100137307#7 100137307#8 115096441#0 115096441#1 115096441#2 487524437#4 100136137#0 100136137#1 100136137#2 100136137#3 -100136101#0 1051484754#0 1051484754#1 1051484754#2 1051484754#3 67151337#1 -115096413#1 485015221 67151360#1 100137338#0 100137338#1 487845015 571173490#2 572680194#0 572680194#1 670579606#0 670579606#1 670579606#2 670579606#3 670579606#4 670579606#5 670579606#6 59584951#0 59584951#1 1058968317#0 1058968317#1 1058968317#2 1058968317#3 1058968317#4 1058968317#5 1058968319#0 1058968319#1 618348655#0 618348655#1 618348655#2 67151321#0 67151321#1 67151321#2 100219217#0 64661042#9 64661042#10 64661042#11 1053083226 1053086169 1053083227#0 1053083227#1 1053083227#2 1053083227#3 1053083227#4 845496624#0 845496624#1 1060262210#3 1060262210#4 483747797 483747798#0 483747798#1 483747798#2 483747798#3 -1055126738#1 -1055126738#0 1055126737 -110485786#6 -110485786#5 -110485786#4 -110485786#3 -110485786#2 -110485786#1 1246225232"/>
    </vehicle>
    <vehicle id="52" type="myType" depart="52.00">