<?xml version="1.0" encoding="UTF-8"?>

<!-- generated on 2024-03-15 19:36:17.010509 by randomTrips.py UNKNOWN
<configuration>
    <net-file value="./sumo-things/net.net.xml"/>
    <additional-files value="./sumo-things/vehicleClass.add.xml"/>
    <output-trip-file value="./sumo-things/trips.trips.xml"/>
    <route-file value="./sumo-things/routes.rou.xml"/>
    <trip-attributes value="type=&quot;myType&quot;"/>
    <fringe-factor value="max"/>
    <allow-fringe value="True"/>
    <verbose value="True"/>
</configuration>
-->

<!-- generated on 2024-03-15 19:36:16 by Eclipse SUMO duarouter Version v1_19_0+1201-15e6959dda4
<configuration xmlns:xsi="http://www.w3.org/2001/XMLSchema-instance" xsi:noNamespaceSchemaLocation="http://sumo.dlr.de/xsd/duarouterConfiguration.xsd">

    <input>
        <net-file value="./sumo-things/net.net.xml"/>
        <additional-files value="./sumo-things/vehicleClass.add.xml"/>
        <route-files value="./sumo-things/trips.trips.xml"/>
    </input>

    <output>
        <output-file value="./sumo-things/routes.rou.xml"/>
        <alternatives-output value="NUL"/>
    </output>

    <time>
        <begin value="0"/>
        <end value="3600"/>
    </time>

    <report>
        <verbose value="true"/>
        <ignore-errors value="true"/>
        <no-step-log value="true"/>
    </report>

</configuration>
-->

<routes xmlns:xsi="http://www.w3.org/2001/XMLSchema-instance" xsi:noNamespaceSchemaLocation="http://sumo.dlr.de/xsd/routes_file.xsd">
    <vType id="myType" vClass="passenger" carFollowModel="EIDM"/>
    <vehicle id="0" type="myType" depart="0.00">
        <route edges="484449878#5 484449878#6 281221761#1 281221763#0 281221763#1 281221763#2 281221763#3 281221763#4 281221763#5 1127460588#0 1127460588#1 1127460588#2"/>
    </vehicle>
    <vehicle id="1" type="myType" depart="1.00">
        <route edges="480155244#0 480155244#1 480155244#2 480155244#3 480155244#4 617083443 281221763#1 281221763#2 281221763#3 281221763#4 281221763#5 1127460588#0 1127460588#1 1127460588#2"/>
    </vehicle>
    <vehicle id="2" type="myType" depart="2.00">
        <route edges="484449878#5 484449878#6 281221761#1 281226915#1 281226915#2 281226915#3"/>
    </vehicle>
    <vehicle id="3" type="myType" depart="3.00">
        <route edges="64661021#1 64661021#2 64661021#3 64661021#4 281221763#0 281221763#1 281221763#2 281221763#3 281221763#4 281221763#5 1127460588#0 1127460588#1 1127460588#2"/>
    </vehicle>
    <vehicle id="4" type="myType" depart="4.00">
        <route edges="480155244#0 480155244#1 480155244#2 480155244#3 480155244#4 617083443 281221763#1 281221763#2 281221763#3 281221763#4 281221763#5 1127460588#0 1127460588#1 1127460588#2"/>
    </vehicle>
    <vehicle id="5" type="myType" depart="5.00">
        <route edges="480039692#10 480041825#0 480041825#1 480041825#2 480041825#3 480041825#4 480041825#5 480041825#6 480041825#7 4811642 281226915#2 281226915#3"/>
    </vehicle>
    <vehicle id="6" type="myType" depart="6.00">
        <route edges="480039692#10 480041825#0 480041825#1 480041825#2 480041825#3 480041825#4 480041825#5 480041825#6 480041825#7 480041825#9 281221763#0 281221763#1 281221763#2 281221763#3 281221763#4 281221763#5 1127460588#0 1127460588#1 1127460588#2"/>
    </vehicle>
    <vehicle id="7" type="myType" depart="7.00">
        <route edges="484449878#5 484449878#6 281221761#1 281226915#1 281226915#2 281226915#3"/>
    </vehicle>
    <vehicle id="8" type="myType" depart="8.00">
        <route edges="480039692#10 480041825#0 480041825#1 480041825#2 480041825#3 480041825#4 480041825#5 480041825#6 480041825#7 4811642 281226915#2 281226915#3"/>
    </vehicle>
    <vehicle id="9" type="myType" depart="9.00">
        <route edges="64661021#1 64661021#2 64661021#3 64661021#4 281221763#0 281221763#1 281221763#2 281221763#3 281221763#4 281221763#5 1127460588#0 1127460588#1 1127460588#2"/>
    </vehicle>
    <vehicle id="10" type="myType" depart="10.00">
        <route edges="64661021#1 64661021#2 64661021#3 64661021#4 281226915#1 281226915#2 281226915#3"/>
    </vehicle>
    <vehicle id="11" type="myType" depart="11.00">
        <route edges="480155244#0 480155244#1 480155244#2 480155244#3 480155244#4 617083443 281221763#1 281221763#2 281221763#3 281221763#4 281221763#5 1127460588#0 1127460588#1 1127460588#2"/>
    </vehicle>
    <vehicle id="12" type="myType" depart="12.00">
        <route edges="64661021#1 64661021#2 64661021#3 64661021#4 281221762#0 281221762#1"/>
    </vehicle>
    <vehicle id="13" type="myType" depart="13.00">
        <route edges="480039692#10 480041825#0 480041825#1 480041825#2 480041825#3 480041825#4 480041825#5 480041825#6 480041825#7 480041825#9 281221763#0 281221763#1 281221763#2 281221763#3 281221763#4 281221763#5 1127460588#0 1127460588#1 1127460588#2"/>
    </vehicle>
    <vehicle id="14" type="myType" depart="14.00">
        <route edges="64661021#1 64661021#2 64661021#3 64661021#4 281226915#1 281226915#2 281226915#3"/>
    </vehicle>
    <vehicle id="15" type="myType" depart="15.00">
        <route edges="64661021#1 64661021#2 64661021#3 64661021#4 281226915#1 281226915#2 281226915#3"/>
    </vehicle>
    <vehicle id="16" type="myType" depart="16.00">
        <route edges="484449878#5 484449878#6 281221761#1 4811637#0 4811637#1 4811637#2"/>
    </vehicle>
    <vehicle id="17" type="myType" depart="17.00">
        <route edges="480155244#0 480155244#1 480155244#2 480155244#3 480155244#4 480155244#5 281226915#1 281226915#2 281226915#3"/>
    </vehicle>
    <vehicle id="18" type="myType" depart="18.00">
        <route edges="64661021#1 64661021#2 64661021#3 64661021#4 281226915#1 281226915#2 281226915#3"/>
    </vehicle>
    <vehicle id="19" type="myType" depart="19.00">
        <route edges="64661021#1 64661021#2 64661021#3 64661021#4 281226915#1 281226915#2 281226915#3"/>
    </vehicle>
    <vehicle id="20" type="myType" depart="20.00">
        <route edges="484449878#5 484449878#6 281221761#1 281221763#0 281221763#1 281221763#2 281221763#3 281221763#4 281221763#5 1127460588#0 1127460588#1 1127460588#2"/>
    </vehicle>
    <vehicle id="21" type="myType" depart="21.00">
        <route edges="480039692#10 480041825#0 480041825#1 480041825#2 480041825#3 480041825#4 480041825#5 480041825#6 480041825#7 480041825#9 281221762#0 281221762#1"/>
    </vehicle>
    <vehicle id="22" type="myType" depart="22.00">
        <route edges="480039692#10 480041825#0 480041825#1 480041825#2 480041825#3 480041825#4 480041825#5 480041825#6 480041825#7 480041825#9 281221763#0 281221763#1 281221763#2 281221763#3 281221763#4 281221763#5 1127460588#0 1127460588#1 1127460588#2"/>
    </vehicle>
    <vehicle id="23" type="myType" depart="23.00">
        <route edges="480039692#10 480041825#0 480041825#1 480041825#2 480041825#3 480041825#4 480041825#5 480041825#6 480041825#7 480041825#9 281221762#0 281221762#1"/>
    </vehicle>
    <vehicle id="24" type="myType" depart="24.00">
        <route edges="484449878#5 484449878#6 617083445 281221762#1"/>
    </vehicle>
    <vehicle id="25" type="myType" depart="25.00">
        <route edges="480155244#0 480155244#1 480155244#2 480155244#3 480155244#4 617083443 281221763#1 281221763#2 281221763#3 281221763#4 281221763#5 1127460588#0 1127460588#1 1127460588#2"/>
    </vehicle>
    <vehicle id="26" type="myType" depart="26.00">
        <route edges="480155244#0 480155244#1 480155244#2 480155244#3 480155244#4 480155244#5 4811637#0 4811637#1 4811637#2"/>
    </vehicle>
    <vehicle id="27" type="myType" depart="27.00">
        <route edges="484449878#5 484449878#6 281221761#1 281226915#1 281226915#2 281226915#3"/>
    </vehicle>
    <vehicle id="28" type="myType" depart="28.00">
        <route edges="480039692#10 480041825#0 480041825#1 480041825#2 480041825#3 480041825#4 480041825#5 480041825#6 480041825#7 4811642 281226915#2 281226915#3"/>
    </vehicle>
    <vehicle id="29" type="myType" depart="29.00">
        <route edges="480039692#10 480041825#0 480041825#1 480041825#2 480041825#3 480041825#4 480041825#5 480041825#6 480041825#7 480041825#9 281221762#0 281221762#1"/>
    </vehicle>
    <vehicle id="30" type="myType" depart="30.00">
        <route edges="64661021#1 64661021#2 64661021#3 64661021#4 281226915#1 281226915#2 281226915#3"/>
    </vehicle>
    <vehicle id="31" type="myType" depart="31.00">
        <route edges="484449878#5 484449878#6 281221761#1 281226915#1 281226915#2 281226915#3"/>
    </vehicle>
    <vehicle id="32" type="myType" depart="32.00">
        <route edges="64661021#1 64661021#2 64661021#3 4811639 4811637#1 4811637#2"/>
    </vehicle>
    <vehicle id="33" type="myType" depart="33.00">
        <route edges="480039692#10 480041825#0 480041825#1 480041825#2 480041825#3 480041825#4 480041825#5 480041825#6 480041825#7 480041825#9 281221763#0 281221763#1 281221763#2 281221763#3 281221763#4 281221763#5 1127460588#0 1127460588#1 1127460588#2"/>
    </vehicle>
    <vehicle id="34" type="myType" depart="34.00">
        <route edges="480155244#0 480155244#1 480155244#2 480155244#3 480155244#4 480155244#5 281221762#0 281221762#1"/>
    </vehicle>
    <vehicle id="35" type="myType" depart="35.00">
        <route edges="480039692#10 480041825#0 480041825#1 480041825#2 480041825#3 480041825#4 480041825#5 480041825#6 480041825#7 480041825#9 4811637#0 4811637#1 4811637#2"/>
    </vehicle>
    <vehicle id="36" type="myType" depart="36.00">
        <route edges="64661021#1 64661021#2 64661021#3 64661021#4 281221762#0 281221762#1"/>
    </vehicle>
    <vehicle id="37" type="myType" depart="37.00">
        <route edges="484449878#5 484449878#6 617083445 281221762#1"/>
    </vehicle>
    <vehicle id="38" type="myType" depart="38.00">
        <route edges="64661021#1 64661021#2 64661021#3 64661021#4 281221762#0 281221762#1"/>
    </vehicle>
    <vehicle id="39" type="myType" depart="39.00">
        <route edges="480155244#0 480155244#1 480155244#2 480155244#3 480155244#4 617083443 281221763#1 281221763#2 281221763#3 281221763#4 281221763#5 1127460588#0 1127460588#1 1127460588#2"/>
    </vehicle>
    <vehicle id="40" type="myType" depart="40.00">
        <route edges="484449878#5 484449878#6 617083445 281221762#1"/>
    </vehicle>
    <vehicle id="41" type="myType" depart="41.00">
        <route edges="484449878#5 484449878#6 281221761#1 4811637#0 4811637#1 4811637#2"/>
    </vehicle>
    <vehicle id="42" type="myType" depart="42.00">
        <route edges="480155244#0 480155244#1 480155244#2 480155244#3 480155244#4 617083443 281221763#1 281221763#2 281221763#3 281221763#4 281221763#5 1127460588#0 1127460588#1 1127460588#2"/>
    </vehicle>
    <vehicle id="43" type="myType" depart="43.00">
        <route edges="64661021#1 64661021#2 64661021#3 64661021#4 281226915#1 281226915#2 281226915#3"/>
    </vehicle>
    <vehicle id="44" type="myType" depart="44.00">
        <route edges="480039692#10 480041825#0 480041825#1 480041825#2 480041825#3 480041825#4 480041825#5 480041825#6 480041825#7 480041825#9 281221763#0 281221763#1 281221763#2 281221763#3 281221763#4 281221763#5 1127460588#0 1127460588#1 1127460588#2"/>
    </vehicle>
    <vehicle id="45" type="myType" depart="45.00">
        <route edges="480039692#10 480041825#0 480041825#1 480041825#2 480041825#3 480041825#4 480041825#5 480041825#6 480041825#7 4811642 281226915#2 281226915#3"/>
    </vehicle>
    <vehicle id="46" type="myType" depart="46.00">
        <route edges="64661021#1 64661021#2 64661021#3 64661021#4 281221762#0 281221762#1"/>
    </vehicle>
    <vehicle id="47" type="myType" depart="47.00">
        <route edges="480039692#10 480041825#0 480041825#1 480041825#2 480041825#3 480041825#4 480041825#5 480041825#6 480041825#7 480041825#9 281221762#0 281221762#1"/>
    </vehicle>
    <vehicle id="48" type="myType" depart="48.00">
        <route edges="64661021#1 64661021#2 64661021#3 64661021#4 281226915#1 281226915#2 281226915#3"/>
    </vehicle>
    <vehicle id="49" type="myType" depart="49.00">
        <route edges="64661021#1 64661021#2 64661021#3 4811639 4811637#1 4811637#2"/>
    </vehicle>
    <vehicle id="50" type="myType" depart="50.00">
        <route edges="480039692#10 480041825#0 480041825#1 480041825#2 480041825#3 480041825#4 480041825#5 480041825#6 480041825#7 4811642 281226915#2 281226915#3"/>
    </vehicle>
    <vehicle id="51" type="myType" depart="51.00">
        <route edges="484449878#5 484449878#6 281221761#1 281226915#1 281226915#2 281226915#3"/>
    </vehicle>
    <vehicle id="52" type="myType" depart="52.00">
        <route edges="480155244#0 480155244#1 480155244#2 480155244#3 480155244#4 480155244#5 281226915#1 281226915#2 281226915#3"/>
    </vehicle>
    <vehicle id="53" type="myType" depart="53.00">
        <route edges="480039692#10 480041825#0 480041825#1 480041825#2 480041825#3 480041825#4 480041825#5 480041825#6 480041825#7 480041825#9 281221762#0 281221762#1"/>
    </vehicle>
    <vehicle id="54" type="myType" depart="54.00">
        <route edges="480155244#0 480155244#1 480155244#2 480155244#3 480155244#4 480155244#5 4811637#0 4811637#1 4811637#2"/>
    </vehicle>
    <vehicle id="55" type="myType" depart="55.00">
        <route edges="64661021#1 64661021#2 64661021#3 64661021#4 281221762#0 281221762#1"/>
    </vehicle>
    <vehicle id="56" type="myType" depart="56.00">
        <route edges="484449878#5 484449878#6 281221761#1 281221763#0 281221763#1 281221763#2 281221763#3 281221763#4 281221763#5 1127460588#0 1127460588#1 1127460588#2"/>
    </vehicle>
    <vehicle id="57" type="myType" depart="57.00">
        <route edges="64661021#1 64661021#2 64661021#3 4811639 4811637#1 4811637#2"/>
    </vehicle>
    <vehicle id="58" type="myType" depart="58.00">
        <route edges="480155244#0 480155244#1 480155244#2 480155244#3 480155244#4 480155244#5 281226915#1 281226915#2 281226915#3"/>
    </vehicle>
    <vehicle id="59" type="myType" depart="59.00">
        <route edges="484449878#5 484449878#6 281221761#1 281221763#0 281221763#1 281221763#2 281221763#3 281221763#4 281221763#5 1127460588#0 1127460588#1 1127460588#2"/>
    </vehicle>
    <vehicle id="60" type="myType" depart="60.00">
        <route edges="64661021#1 64661021#2 64661021#3 64661021#4 281226915#1 281226915#2 281226915#3"/>
    </vehicle>
    <vehicle id="61" type="myType" depart="61.00">
        <route edges="64661021#1 64661021#2 64661021#3 64661021#4 281226915#1 281226915#2 281226915#3"/>
    </vehicle>
    <vehicle id="62" type="myType" depart="62.00">
        <route edges="480039692#10 480041825#0 480041825#1 480041825#2 480041825#3 480041825#4 480041825#5 480041825#6 480041825#7 480041825#9 281221762#0 281221762#1"/>
    </vehicle>
    <vehicle id="63" type="myType" depart="63.00">
        <route edges="480039692#10 480041825#0 480041825#1 480041825#2 480041825#3 480041825#4 480041825#5 480041825#6 480041825#7 480041825#9 4811637#0 4811637#1 4811637#2"/>
    </vehicle>
    <vehicle id="64" type="myType" depart="64.00">
        <route edges="64661021#1 64661021#2 64661021#3 4811639 4811637#1 4811637#2"/>
    </vehicle>
    <vehicle id="65" type="myType" depart="65.00">
        <route edges="480155244#0 480155244#1 480155244#2 480155244#3 480155244#4 617083443 281221763#1 281221763#2 281221763#3 281221763#4 281221763#5 1127460588#0 1127460588#1 1127460588#2"/>
    </vehicle>
    <vehicle id="66" type="myType" depart="66.00">
        <route edges="64661021#1 64661021#2 64661021#3 4811639 4811637#1 4811637#2"/>
    </vehicle>
    <vehicle id="67" type="myType" depart="67.00">
        <route edges="480039692#10 480041825#0 480041825#1 480041825#2 480041825#3 480041825#4 480041825#5 480041825#6 480041825#7 480041825#9 281221762#0 281221762#1"/>
    </vehicle>
    <vehicle id="68" type="myType" depart="68.00">
        <route edges="480039692#10 480041825#0 480041825#1 480041825#2 480041825#3 480041825#4 480041825#5 480041825#6 480041825#7 480041825#9 4811637#0 4811637#1 4811637#2"/>
    </vehicle>
    <vehicle id="69" type="myType" depart="69.00">
        <route edges="64661021#1 64661021#2 64661021#3 64661021#4 281221763#0 281221763#1 281221763#2 281221763#3 281221763#4 281221763#5 1127460588#0 1127460588#1 1127460588#2"/>
    </vehicle>
    <vehicle id="70" type="myType" depart="70.00">
        <route edges="480155244#0 480155244#1 480155244#2 480155244#3 480155244#4 480155244#5 281226915#1 281226915#2 281226915#3"/>
    </vehicle>
    <vehicle id="71" type="myType" depart="71.00">
        <route edges="480155244#0 480155244#1 480155244#2 480155244#3 480155244#4 480155244#5 4811637#0 4811637#1 4811637#2"/>
    </vehicle>
    <vehicle id="72" type="myType" depart="72.00">
        <route edges="480155244#0 480155244#1 480155244#2 480155244#3 480155244#4 617083443 281221763#1 281221763#2 281221763#3 281221763#4 281221763#5 1127460588#0 1127460588#1 1127460588#2"/>
    </vehicle>
    <vehicle id="73" type="myType" depart="73.00">
        <route edges="484449878#5 484449878#6 281221761#1 281226915#1 281226915#2 281226915#3"/>
    </vehicle>
    <vehicle id="74" type="myType" depart="74.00">
        <route edges="480039692#10 480041825#0 480041825#1 480041825#2 480041825#3 480041825#4 480041825#5 480041825#6 480041825#7 480041825#9 281221762#0 281221762#1"/>
    </vehicle>
    <vehicle id="75" type="myType" depart="75.00">
        <route edges="64661021#1 64661021#2 64661021#3 64661021#4 281226915#1 281226915#2 281226915#3"/>
    </vehicle>
    <vehicle id="76" type="myType" depart="76.00">
        <route edges="480155244#0 480155244#1 480155244#2 480155244#3 480155244#4 480155244#5 281226915#1 281226915#2 281226915#3"/>
    </vehicle>
    <vehicle id="77" type="myType" depart="77.00">
        <route edges="480039692#10 480041825#0 480041825#1 480041825#2 480041825#3 480041825#4 480041825#5 480041825#6 480041825#7 480041825#9 281221763#0 281221763#1 281221763#2 281221763#3 281221763#4 281221763#5 1127460588#0 1127460588#1 1127460588#2"/>
    </vehicle>
    <vehicle id="78" type="myType" depart="78.00">
        <route edges="480155244#0 480155244#1 480155244#2 480155244#3 480155244#4 480155244#5 281226915#1 281226915#2 281226915#3"/>
    </vehicle>
    <vehicle id="79" type="myType" depart="79.00">
        <route edges="480039692#10 480041825#0 480041825#1 480041825#2 480041825#3 480041825#4 480041825#5 480041825#6 480041825#7 480041825#9 281221763#0 281221763#1 281221763#2 281221763#3 281221763#4 281221763#5 1127460588#0 1127460588#1 1127460588#2"/>
    </vehicle>
    <vehicle id="80" type="myType" depart="80.00">
        <route edges="480039692#10 480041825#0 480041825#1 480041825#2 480041825#3 480041825#4 480041825#5 480041825#6 480041825#7 4811642 281226915#2 281226915#3"/>
    </vehicle>
    <vehicle id="81" type="myType" depart="81.00">
        <route edges="480039692#10 480041825#0 480041825#1 480041825#2 480041825#3 480041825#4 480041825#5 480041825#6 480041825#7 480041825#9 4811637#0 4811637#1 4811637#2"/>
    </vehicle>
    <vehicle id="82" type="myType" depart="82.00">
        <route edges="64661021#1 64661021#2 64661021#3 64661021#4 281221763#0 281221763#1 281221763#2 281221763#3 281221763#4 281221763#5 1127460588#0 1127460588#1 1127460588#2"/>
    </vehicle>
    <vehicle id="83" type="myType" depart="83.00">
        <route edges="480039692#10 480041825#0 480041825#1 480041825#2 480041825#3 480041825#4 480041825#5 480041825#6 480041825#7 4811642 281226915#2 281226915#3"/>
    </vehicle>
    <vehicle id="84" type="myType" depart="84.00">
        <route edges="480039692#10 480041825#0 480041825#1 480041825#2 480041825#3 480041825#4 480041825#5 480041825#6 480041825#7 480041825#9 281221763#0 281221763#1 281221763#2 281221763#3 281221763#4 281221763#5 1127460588#0 1127460588#1 1127460588#2"/>
    </vehicle>
    <vehicle id="85" type="myType" depart="85.00">
        <route edges="64661021#1 64661021#2 64661021#3 64661021#4 281226915#1 281226915#2 281226915#3"/>
    </vehicle>
    <vehicle id="86" type="myType" depart="86.00">
        <route edges="480155244#0 480155244#1 480155244#2 480155244#3 480155244#4 480155244#5 4811637#0 4811637#1 4811637#2"/>
    </vehicle>
    <vehicle id="87" type="myType" depart="87.00">
        <route edges="64661021#1 64661021#2 64661021#3 64661021#4 281221763#0 281221763#1 281221763#2 281221763#3 281221763#4 281221763#5 1127460588#0 1127460588#1 1127460588#2"/>
    </vehicle>
    <vehicle id="88" type="myType" depart="88.00">
        <route edges="480039692#10 480041825#0 480041825#1 480041825#2 480041825#3 480041825#4 480041825#5 480041825#6 480041825#7 480041825#9 281221762#0 281221762#1"/>
    </vehicle>
    <vehicle id="89" type="myType" depart="89.00">
        <route edges="480155244#0 480155244#1 480155244#2 480155244#3 480155244#4 480155244#5 281221762#0 281221762#1"/>
    </vehicle>
    <vehicle id="90" type="myType" depart="90.00">
        <route edges="484449878#5 484449878#6 281221761#1 281226915#1 281226915#2 281226915#3"/>
    </vehicle>
    <vehicle id="91" type="myType" depart="91.00">
        <route edges="64661021#1 64661021#2 64661021#3 64661021#4 281221763#0 281221763#1 281221763#2 281221763#3 281221763#4 281221763#5 1127460588#0 1127460588#1 1127460588#2"/>
    </vehicle>
    <vehicle id="92" type="myType" depart="92.00">
        <route edges="480155244#0 480155244#1 480155244#2 480155244#3 480155244#4 480155244#5 281221762#0 281221762#1"/>
    </vehicle>
    <vehicle id="93" type="myType" depart="93.00">
        <route edges="64661021#1 64661021#2 64661021#3 64661021#4 281221763#0 281221763#1 281221763#2 281221763#3 281221763#4 281221763#5 1127460588#0 1127460588#1 1127460588#2"/>
    </vehicle>
    <vehicle id="94" type="myType" depart="94.00">
        <route edges="480039692#10 480041825#0 480041825#1 480041825#2 480041825#3 480041825#4 480041825#5 480041825#6 480041825#7 480041825#9 281221762#0 281221762#1"/>
    </vehicle>
    <vehicle id="95" type="myType" depart="95.00">
        <route edges="480155244#0 480155244#1 480155244#2 480155244#3 480155244#4 480155244#5 281221762#0 281221762#1"/>
    </vehicle>
    <vehicle id="96" type="myType" depart="96.00">
        <route edges="480039692#10 480041825#0 480041825#1 480041825#2 480041825#3 480041825#4 480041825#5 480041825#6 480041825#7 480041825#9 4811637#0 4811637#1 4811637#2"/>
    </vehicle>
    <vehicle id="97" type="myType" depart="97.00">
        <route edges="480155244#0 480155244#1 480155244#2 480155244#3 480155244#4 480155244#5 4811637#0 4811637#1 4811637#2"/>
    </vehicle>
    <vehicle id="98" type="myType" depart="98.00">
        <route edges="484449878#5 484449878#6 281221761#1 281221763#0 281221763#1 281221763#2 281221763#3 281221763#4 281221763#5 1127460588#0 1127460588#1 1127460588#2"/>
    </vehicle>
    <vehicle id="99" type="myType" depart="99.00">
        <route edges="64661021#1 64661021#2 64661021#3 4811639 4811637#1 4811637#2"/>
    </vehicle>
    <vehicle id="100" type="myType" depart="100.00">
        <route edges="64661021#1 64661021#2 64661021#3 4811639 4811637#1 4811637#2"/>
    </vehicle>
    <vehicle id="101" type="myType" depart="101.00">
        <route edges="64661021#1 64661021#2 64661021#3 64661021#4 281221763#0 281221763#1 281221763#2 281221763#3 281221763#4 281221763#5 1127460588#0 1127460588#1 1127460588#2"/>
    </vehicle>
    <vehicle id="102" type="myType" depart="102.00">
        <route edges="480155244#0 480155244#1 480155244#2 480155244#3 480155244#4 617083443 281221763#1 281221763#2 281221763#3 281221763#4 281221763#5 1127460588#0 1127460588#1 1127460588#2"/>
    </vehicle>
    <vehicle id="103" type="myType" depart="103.00">
        <route edges="480155244#0 480155244#1 480155244#2 480155244#3 480155244#4 617083443 281221763#1 281221763#2 281221763#3 281221763#4 281221763#5 1127460588#0 1127460588#1 1127460588#2"/>
    </vehicle>
    <vehicle id="104" type="myType" depart="104.00">
        <route edges="480155244#0 480155244#1 480155244#2 480155244#3 480155244#4 480155244#5 4811637#0 4811637#1 4811637#2"/>
    </vehicle>
    <vehicle id="105" type="myType" depart="105.00">
        <route edges="480155244#0 480155244#1 480155244#2 480155244#3 480155244#4 480155244#5 4811637#0 4811637#1 4811637#2"/>
    </vehicle>
    <vehicle id="106" type="myType" depart="106.00">
        <route edges="480155244#0 480155244#1 480155244#2 480155244#3 480155244#4 480155244#5 281221762#0 281221762#1"/>
    </vehicle>
    <vehicle id="107" type="myType" depart="107.00">
        <route edges="64661021#1 64661021#2 64661021#3 4811639 4811637#1 4811637#2"/>
    </vehicle>
    <vehicle id="108" type="myType" depart="108.00">
        <route edges="484449878#5 484449878#6 281221761#1 281226915#1 281226915#2 281226915#3"/>
    </vehicle>
    <vehicle id="109" type="myType" depart="109.00">
        <route edges="480039692#10 480041825#0 480041825#1 480041825#2 480041825#3 480041825#4 480041825#5 480041825#6 480041825#7 480041825#9 281221762#0 281221762#1"/>
    </vehicle>
    <vehicle id="110" type="myType" depart="110.00">
        <route edges="64661021#1 64661021#2 64661021#3 64661021#4 281226915#1 281226915#2 281226915#3"/>
    </vehicle>
    <vehicle id="111" type="myType" depart="111.00">
        <route edges="484449878#5 484449878#6 281221761#1 281226915#1 281226915#2 281226915#3"/>
    </vehicle>
    <vehicle id="112" type="myType" depart="112.00">
        <route edges="480039692#10 480041825#0 480041825#1 480041825#2 480041825#3 480041825#4 480041825#5 480041825#6 480041825#7 4811642 281226915#2 281226915#3"/>
    </vehicle>
    <vehicle id="113" type="myType" depart="113.00">
        <route edges="484449878#5 484449878#6 281221761#1 4811637#0 4811637#1 4811637#2"/>
    </vehicle>
    <vehicle id="114" type="myType" depart="114.00">
        <route edges="480039692#10 480041825#0 480041825#1 480041825#2 480041825#3 480041825#4 480041825#5 480041825#6 480041825#7 480041825#9 4811637#0 4811637#1 4811637#2"/>
    </vehicle>
    <vehicle id="115" type="myType" depart="115.00">
        <route edges="480039692#10 480041825#0 480041825#1 480041825#2 480041825#3 480041825#4 480041825#5 480041825#6 480041825#7 480041825#9 281221763#0 281221763#1 281221763#2 281221763#3 281221763#4 281221763#5 1127460588#0 1127460588#1 1127460588#2"/>
    </vehicle>
    <vehicle id="116" type="myType" depart="116.00">
        <route edges="484449878#5 484449878#6 281221761#1 281226915#1 281226915#2 281226915#3"/>
    </vehicle>
    <vehicle id="117" type="myType" depart="117.00">
        <route edges="480039692#10 480041825#0 480041825#1 480041825#2 480041825#3 480041825#4 480041825#5 480041825#6 480041825#7 480041825#9 281221763#0 281221763#1 281221763#2 281221763#3 281221763#4 281221763#5 1127460588#0 1127460588#1 1127460588#2"/>
    </vehicle>
    <vehicle id="118" type="myType" depart="118.00">
        <route edges="64661021#1 64661021#2 64661021#3 64661021#4 281221763#0 281221763#1 281221763#2 281221763#3 281221763#4 281221763#5 1127460588#0 1127460588#1 1127460588#2"/>
    </vehicle>
    <vehicle id="119" type="myType" depart="119.00">
        <route edges="484449878#5 484449878#6 281221761#1 281226915#1 281226915#2 281226915#3"/>
    </vehicle>
    <vehicle id="120" type="myType" depart="120.00">
        <route edges="480155244#0 480155244#1 480155244#2 480155244#3 480155244#4 480155244#5 281226915#1 281226915#2 281226915#3"/>
    </vehicle>
    <vehicle id="121" type="myType" depart="121.00">
        <route edges="484449878#5 484449878#6 281221761#1 4811637#0 4811637#1 4811637#2"/>
    </vehicle>
    <vehicle id="122" type="myType" depart="122.00">
        <route edges="480039692#10 480041825#0 480041825#1 480041825#2 480041825#3 480041825#4 480041825#5 480041825#6 480041825#7 4811642 281226915#2 281226915#3"/>
    </vehicle>
    <vehicle id="123" type="myType" depart="123.00">
        <route edges="480039692#10 480041825#0 480041825#1 480041825#2 480041825#3 480041825#4 480041825#5 480041825#6 480041825#7 480041825#9 281221762#0 281221762#1"/>
    </vehicle>
    <vehicle id="124" type="myType" depart="124.00">
        <route edges="484449878#5 484449878#6 617083445 281221762#1"/>
    </vehicle>
    <vehicle id="125" type="myType" depart="125.00">
        <route edges="480155244#0 480155244#1 480155244#2 480155244#3 480155244#4 480155244#5 4811637#0 4811637#1 4811637#2"/>
    </vehicle>
    <vehicle id="126" type="myType" depart="126.00">
        <route edges="480039692#10 480041825#0 480041825#1 480041825#2 480041825#3 480041825#4 480041825#5 480041825#6 480041825#7 480041825#9 281221762#0 281221762#1"/>
    </vehicle>
    <vehicle id="127" type="myType" depart="127.00">
        <route edges="64661021#1 64661021#2 64661021#3 4811639 4811637#1 4811637#2"/>
    </vehicle>
    <vehicle id="128" type="myType" depart="128.00">
        <route edges="480039692#10 480041825#0 480041825#1 480041825#2 480041825#3 480041825#4 480041825#5 480041825#6 480041825#7 480041825#9 281221763#0 281221763#1 281221763#2 281221763#3 281221763#4 281221763#5 1127460588#0 1127460588#1 1127460588#2"/>
    </vehicle>
    <vehicle id="129" type="myType" depart="129.00">
        <route edges="480155244#0 480155244#1 480155244#2 480155244#3 480155244#4 480155244#5 4811637#0 4811637#1 4811637#2"/>
    </vehicle>
    <vehicle id="130" type="myType" depart="130.00">
        <route edges="64661021#1 64661021#2 64661021#3 4811639 4811637#1 4811637#2"/>
    </vehicle>
    <vehicle id="131" type="myType" depart="131.00">
        <route edges="480155244#0 480155244#1 480155244#2 480155244#3 480155244#4 617083443 281221763#1 281221763#2 281221763#3 281221763#4 281221763#5 1127460588#0 1127460588#1 1127460588#2"/>
    </vehicle>
    <vehicle id="132" type="myType" depart="132.00">
        <route edges="64661021#1 64661021#2 64661021#3 64661021#4 281226915#1 281226915#2 281226915#3"/>
    </vehicle>
    <vehicle id="133" type="myType" depart="133.00">
        <route edges="484449878#5 484449878#6 281221761#1 4811637#0 4811637#1 4811637#2"/>
    </vehicle>
    <vehicle id="134" type="myType" depart="134.00">