<additional>
  <vType id="myType" carFollowModel="EIDM" vClass="passenger"/>
</additional>
