<?xml version="1.0" encoding="UTF-8"?>

<!-- generated on 2024-05-02 13:17:25 by Eclipse SUMO sumo Version v1_19_0+1953-d1f119dd4db
-->

<configuration xmlns:xsi="http://www.w3.org/2001/XMLSchema-instance" xsi:noNamespaceSchemaLocation="http://sumo.dlr.de/xsd/sumoConfiguration.xsd">

    <input>
        <net-file value="net.net.xml"/>
        <route-files value="main.rou.xml"/>
        <additional-files value="loops.add.xml"/>
    </input>

</configuration>
