<?xml version="1.0" encoding="UTF-8"?>

<!-- generated on 2024-03-30 14:26:58 by Eclipse SUMO sumo Version v1_19_0+1552-1b122d1d49e
-->

<configuration xmlns:xsi="http://www.w3.org/2001/XMLSchema-instance" xsi:noNamespaceSchemaLocation="http://sumo.dlr.de/xsd/sumoConfiguration.xsd">

    <input>
        <net-file value="net.net.xml"/>
        <route-files value="../main.rou.xml"/>
        <additional-files value="../loops.add.xml"/>
    </input>

</configuration>
